/*---------------------------------------------------------------------------*\
| =========                 |                                                 |
| \\      /  F ield         | OpenFOAM: The Open Source CFD Toolbox           |
|  \\    /   O peration     | Version:  2212                                  |
|   \\  /    A nd           | Website:  www.openfoam.com                      |
|    \\/     M anipulation  |                                                 |
\*---------------------------------------------------------------------------*/
Build  : _c9081d5d-20230220 OPENFOAM=2212 patch=230110 version=v2212
Arch   : "LSB;label=64;scalar=64"
Exec   : reconstructPar
Date   : Mar 02 2024
Time   : 18:55:14
Host   : DESKTOP-E2PB5N9
PID    : 3901
I/O    : uncollated
Case   : /home/noreff/works/OpenFOAM-user/v2206/Projects/solverTests/hotFloorADM
nProcs : 1
trapFpe: Floating point exception trapping enabled (FOAM_SIGFPE).
fileModificationChecking : Monitoring run-time modified files using timeStampMaster (fileModificationSkew 5, maxFileModificationPolls 20)
allowSystemOperations : Allowing user-supplied system call operations

// * * * * * * * * * * * * * * * * * * * * * * * * * * * * * * * * * * * * * //
Create time



Reconstructing fields
region=region0

Time = 10

Reconstructing FV fields

    Reconstructing volScalarField::Internals

        dGch4
        dGco2
        dGh2

    Reconstructing volScalarFields

        Gch4
        Gco2
        Gh2
        SI
        SIC
        SIN
        Saa
        Sac
        Sbu
        Sch4
        Sco2
        Sfa
        Sh2
        Snh3
        Snh4
        Spro
        Ssu
        Sva
        T
        XI
        Xaa
        Xac
        Xc
        Xc4
        Xch
        Xfa
        Xh2
        Xli
        Xpr
        Xpro
        Xsu
        alphat
        p
        pH
        p_rgh

    Reconstructing volVectorFields

        U

    Reconstructing surfaceScalarFields

        phi

Reconstructing point fields

No point fields

No lagrangian fields

No FA fields

Time = 20

Reconstructing FV fields

    Reconstructing volScalarField::Internals

        dGch4
        dGco2
        dGh2

    Reconstructing volScalarFields

        Gch4
        Gco2
        Gh2
        SI
        SIC
        SIN
        Saa
        Sac
        Sbu
        Sch4
        Sco2
        Sfa
        Sh2
        Snh3
        Snh4
        Spro
        Ssu
        Sva
        T
        XI
        Xaa
        Xac
        Xc
        Xc4
        Xch
        Xfa
        Xh2
        Xli
        Xpr
        Xpro
        Xsu
        alphat
        p
        pH
        p_rgh

    Reconstructing volVectorFields

        U

    Reconstructing surfaceScalarFields

        phi

Reconstructing point fields

No point fields

No lagrangian fields

No FA fields

Time = 30

Reconstructing FV fields

    Reconstructing volScalarField::Internals

        dGch4
        dGco2
        dGh2

    Reconstructing volScalarFields

        Gch4
        Gco2
        Gh2
        SI
        SIC
        SIN
        Saa
        Sac
        Sbu
        Sch4
        Sco2
        Sfa
        Sh2
        Snh3
        Snh4
        Spro
        Ssu
        Sva
        T
        XI
        Xaa
        Xac
        Xc
        Xc4
        Xch
        Xfa
        Xh2
        Xli
        Xpr
        Xpro
        Xsu
        alphat
        p
        pH
        p_rgh

    Reconstructing volVectorFields

        U

    Reconstructing surfaceScalarFields

        phi

Reconstructing point fields

No point fields

No lagrangian fields

No FA fields

Time = 40

Reconstructing FV fields

    Reconstructing volScalarField::Internals

        dGch4
        dGco2
        dGh2

    Reconstructing volScalarFields

        Gch4
        Gco2
        Gh2
        SI
        SIC
        SIN
        Saa
        Sac
        Sbu
        Sch4
        Sco2
        Sfa
        Sh2
        Snh3
        Snh4
        Spro
        Ssu
        Sva
        T
        XI
        Xaa
        Xac
        Xc
        Xc4
        Xch
        Xfa
        Xh2
        Xli
        Xpr
        Xpro
        Xsu
        alphat
        p
        pH
        p_rgh

    Reconstructing volVectorFields

        U

    Reconstructing surfaceScalarFields

        phi

Reconstructing point fields

No point fields

No lagrangian fields

No FA fields

Time = 50

Reconstructing FV fields

    Reconstructing volScalarField::Internals

        dGch4
        dGco2
        dGh2

    Reconstructing volScalarFields

        Gch4
        Gco2
        Gh2
        SI
        SIC
        SIN
        Saa
        Sac
        Sbu
        Sch4
        Sco2
        Sfa
        Sh2
        Snh3
        Snh4
        Spro
        Ssu
        Sva
        T
        XI
        Xaa
        Xac
        Xc
        Xc4
        Xch
        Xfa
        Xh2
        Xli
        Xpr
        Xpro
        Xsu
        alphat
        p
        pH
        p_rgh

    Reconstructing volVectorFields

        U

    Reconstructing surfaceScalarFields

        phi

Reconstructing point fields

No point fields

No lagrangian fields

No FA fields

Time = 60

Reconstructing FV fields

    Reconstructing volScalarField::Internals

        dGch4
        dGco2
        dGh2

    Reconstructing volScalarFields

        Gch4
        Gco2
        Gh2
        SI
        SIC
        SIN
        Saa
        Sac
        Sbu
        Sch4
        Sco2
        Sfa
        Sh2
        Snh3
        Snh4
        Spro
        Ssu
        Sva
        T
        XI
        Xaa
        Xac
        Xc
        Xc4
        Xch
        Xfa
        Xh2
        Xli
        Xpr
        Xpro
        Xsu
        alphat
        p
        pH
        p_rgh

    Reconstructing volVectorFields

        U

    Reconstructing surfaceScalarFields

        phi

Reconstructing point fields

No point fields

No lagrangian fields

No FA fields

Time = 70

Reconstructing FV fields

    Reconstructing volScalarField::Internals

        dGch4
        dGco2
        dGh2

    Reconstructing volScalarFields

        Gch4
        Gco2
        Gh2
        SI
        SIC
        SIN
        Saa
        Sac
        Sbu
        Sch4
        Sco2
        Sfa
        Sh2
        Snh3
        Snh4
        Spro
        Ssu
        Sva
        T
        XI
        Xaa
        Xac
        Xc
        Xc4
        Xch
        Xfa
        Xh2
        Xli
        Xpr
        Xpro
        Xsu
        alphat
        p
        pH
        p_rgh

    Reconstructing volVectorFields

        U

    Reconstructing surfaceScalarFields

        phi

Reconstructing point fields

No point fields

No lagrangian fields

No FA fields

Time = 80

Reconstructing FV fields

    Reconstructing volScalarField::Internals

        dGch4
        dGco2
        dGh2

    Reconstructing volScalarFields

        Gch4
        Gco2
        Gh2
        SI
        SIC
        SIN
        Saa
        Sac
        Sbu
        Sch4
        Sco2
        Sfa
        Sh2
        Snh3
        Snh4
        Spro
        Ssu
        Sva
        T
        XI
        Xaa
        Xac
        Xc
        Xc4
        Xch
        Xfa
        Xh2
        Xli
        Xpr
        Xpro
        Xsu
        alphat
        p
        pH
        p_rgh

    Reconstructing volVectorFields

        U

    Reconstructing surfaceScalarFields

        phi

Reconstructing point fields

No point fields

No lagrangian fields

No FA fields

Time = 90

Reconstructing FV fields

    Reconstructing volScalarField::Internals

        dGch4
        dGco2
        dGh2

    Reconstructing volScalarFields

        Gch4
        Gco2
        Gh2
        SI
        SIC
        SIN
        Saa
        Sac
        Sbu
        Sch4
        Sco2
        Sfa
        Sh2
        Snh3
        Snh4
        Spro
        Ssu
        Sva
        T
        XI
        Xaa
        Xac
        Xc
        Xc4
        Xch
        Xfa
        Xh2
        Xli
        Xpr
        Xpro
        Xsu
        alphat
        p
        pH
        p_rgh

    Reconstructing volVectorFields

        U

    Reconstructing surfaceScalarFields

        phi

Reconstructing point fields

No point fields

No lagrangian fields

No FA fields

Time = 100

Reconstructing FV fields

    Reconstructing volScalarField::Internals

        dGch4
        dGco2
        dGh2

    Reconstructing volScalarFields

        Gch4
        Gco2
        Gh2
        SI
        SIC
        SIN
        Saa
        Sac
        Sbu
        Sch4
        Sco2
        Sfa
        Sh2
        Snh3
        Snh4
        Spro
        Ssu
        Sva
        T
        XI
        Xaa
        Xac
        Xc
        Xc4
        Xch
        Xfa
        Xh2
        Xli
        Xpr
        Xpro
        Xsu
        alphat
        p
        pH
        p_rgh

    Reconstructing volVectorFields

        U

    Reconstructing surfaceScalarFields

        phi

Reconstructing point fields

No point fields

No lagrangian fields

No FA fields

Time = 110

Reconstructing FV fields

    Reconstructing volScalarField::Internals

        dGch4
        dGco2
        dGh2

    Reconstructing volScalarFields

        Gch4
        Gco2
        Gh2
        SI
        SIC
        SIN
        Saa
        Sac
        Sbu
        Sch4
        Sco2
        Sfa
        Sh2
        Snh3
        Snh4
        Spro
        Ssu
        Sva
        T
        XI
        Xaa
        Xac
        Xc
        Xc4
        Xch
        Xfa
        Xh2
        Xli
        Xpr
        Xpro
        Xsu
        alphat
        p
        pH
        p_rgh

    Reconstructing volVectorFields

        U

    Reconstructing surfaceScalarFields

        phi

Reconstructing point fields

No point fields

No lagrangian fields

No FA fields

Time = 120

Reconstructing FV fields

    Reconstructing volScalarField::Internals

        dGch4
        dGco2
        dGh2

    Reconstructing volScalarFields

        Gch4
        Gco2
        Gh2
        SI
        SIC
        SIN
        Saa
        Sac
        Sbu
        Sch4
        Sco2
        Sfa
        Sh2
        Snh3
        Snh4
        Spro
        Ssu
        Sva
        T
        XI
        Xaa
        Xac
        Xc
        Xc4
        Xch
        Xfa
        Xh2
        Xli
        Xpr
        Xpro
        Xsu
        alphat
        p
        pH
        p_rgh

    Reconstructing volVectorFields

        U

    Reconstructing surfaceScalarFields

        phi

Reconstructing point fields

No point fields

No lagrangian fields

No FA fields

Time = 130

Reconstructing FV fields

    Reconstructing volScalarField::Internals

        dGch4
        dGco2
        dGh2

    Reconstructing volScalarFields

        Gch4
        Gco2
        Gh2
        SI
        SIC
        SIN
        Saa
        Sac
        Sbu
        Sch4
        Sco2
        Sfa
        Sh2
        Snh3
        Snh4
        Spro
        Ssu
        Sva
        T
        XI
        Xaa
        Xac
        Xc
        Xc4
        Xch
        Xfa
        Xh2
        Xli
        Xpr
        Xpro
        Xsu
        alphat
        p
        pH
        p_rgh

    Reconstructing volVectorFields

        U

    Reconstructing surfaceScalarFields

        phi

Reconstructing point fields

No point fields

No lagrangian fields

No FA fields

Time = 140

Reconstructing FV fields

    Reconstructing volScalarField::Internals

        dGch4
        dGco2
        dGh2

    Reconstructing volScalarFields

        Gch4
        Gco2
        Gh2
        SI
        SIC
        SIN
        Saa
        Sac
        Sbu
        Sch4
        Sco2
        Sfa
        Sh2
        Snh3
        Snh4
        Spro
        Ssu
        Sva
        T
        XI
        Xaa
        Xac
        Xc
        Xc4
        Xch
        Xfa
        Xh2
        Xli
        Xpr
        Xpro
        Xsu
        alphat
        p
        pH
        p_rgh

    Reconstructing volVectorFields

        U

    Reconstructing surfaceScalarFields

        phi

Reconstructing point fields

No point fields

No lagrangian fields

No FA fields

Time = 150

Reconstructing FV fields

    Reconstructing volScalarField::Internals

        dGch4
        dGco2
        dGh2

    Reconstructing volScalarFields

        Gch4
        Gco2
        Gh2
        SI
        SIC
        SIN
        Saa
        Sac
        Sbu
        Sch4
        Sco2
        Sfa
        Sh2
        Snh3
        Snh4
        Spro
        Ssu
        Sva
        T
        XI
        Xaa
        Xac
        Xc
        Xc4
        Xch
        Xfa
        Xh2
        Xli
        Xpr
        Xpro
        Xsu
        alphat
        p
        pH
        p_rgh

    Reconstructing volVectorFields

        U

    Reconstructing surfaceScalarFields

        phi

Reconstructing point fields

No point fields

No lagrangian fields

No FA fields

Time = 160

Reconstructing FV fields

    Reconstructing volScalarField::Internals

        dGch4
        dGco2
        dGh2

    Reconstructing volScalarFields

        Gch4
        Gco2
        Gh2
        SI
        SIC
        SIN
        Saa
        Sac
        Sbu
        Sch4
        Sco2
        Sfa
        Sh2
        Snh3
        Snh4
        Spro
        Ssu
        Sva
        T
        XI
        Xaa
        Xac
        Xc
        Xc4
        Xch
        Xfa
        Xh2
        Xli
        Xpr
        Xpro
        Xsu
        alphat
        p
        pH
        p_rgh

    Reconstructing volVectorFields

        U

    Reconstructing surfaceScalarFields

        phi

Reconstructing point fields

No point fields

No lagrangian fields

No FA fields

Time = 170

Reconstructing FV fields

    Reconstructing volScalarField::Internals

        dGch4
        dGco2
        dGh2

    Reconstructing volScalarFields

        Gch4
        Gco2
        Gh2
        SI
        SIC
        SIN
        Saa
        Sac
        Sbu
        Sch4
        Sco2
        Sfa
        Sh2
        Snh3
        Snh4
        Spro
        Ssu
        Sva
        T
        XI
        Xaa
        Xac
        Xc
        Xc4
        Xch
        Xfa
        Xh2
        Xli
        Xpr
        Xpro
        Xsu
        alphat
        p
        pH
        p_rgh

    Reconstructing volVectorFields

        U

    Reconstructing surfaceScalarFields

        phi

Reconstructing point fields

No point fields

No lagrangian fields

No FA fields

Time = 180

Reconstructing FV fields

    Reconstructing volScalarField::Internals

        dGch4
        dGco2
        dGh2

    Reconstructing volScalarFields

        Gch4
        Gco2
        Gh2
        SI
        SIC
        SIN
        Saa
        Sac
        Sbu
        Sch4
        Sco2
        Sfa
        Sh2
        Snh3
        Snh4
        Spro
        Ssu
        Sva
        T
        XI
        Xaa
        Xac
        Xc
        Xc4
        Xch
        Xfa
        Xh2
        Xli
        Xpr
        Xpro
        Xsu
        alphat
        p
        pH
        p_rgh

    Reconstructing volVectorFields

        U

    Reconstructing surfaceScalarFields

        phi

Reconstructing point fields

No point fields

No lagrangian fields

No FA fields

Time = 190

Reconstructing FV fields

    Reconstructing volScalarField::Internals

        dGch4
        dGco2
        dGh2

    Reconstructing volScalarFields

        Gch4
        Gco2
        Gh2
        SI
        SIC
        SIN
        Saa
        Sac
        Sbu
        Sch4
        Sco2
        Sfa
        Sh2
        Snh3
        Snh4
        Spro
        Ssu
        Sva
        T
        XI
        Xaa
        Xac
        Xc
        Xc4
        Xch
        Xfa
        Xh2
        Xli
        Xpr
        Xpro
        Xsu
        alphat
        p
        pH
        p_rgh

    Reconstructing volVectorFields

        U

    Reconstructing surfaceScalarFields

        phi

Reconstructing point fields

No point fields

No lagrangian fields

No FA fields

Time = 200

Reconstructing FV fields

    Reconstructing volScalarField::Internals

        dGch4
        dGco2
        dGh2

    Reconstructing volScalarFields

        Gch4
        Gco2
        Gh2
        SI
        SIC
        SIN
        Saa
        Sac
        Sbu
        Sch4
        Sco2
        Sfa
        Sh2
        Snh3
        Snh4
        Spro
        Ssu
        Sva
        T
        XI
        Xaa
        Xac
        Xc
        Xc4
        Xch
        Xfa
        Xh2
        Xli
        Xpr
        Xpro
        Xsu
        alphat
        p
        pH
        p_rgh

    Reconstructing volVectorFields

        U

    Reconstructing surfaceScalarFields

        phi

Reconstructing point fields

No point fields

No lagrangian fields

No FA fields

Time = 210

Reconstructing FV fields

    Reconstructing volScalarField::Internals

        dGch4
        dGco2
        dGh2

    Reconstructing volScalarFields

        Gch4
        Gco2
        Gh2
        SI
        SIC
        SIN
        Saa
        Sac
        Sbu
        Sch4
        Sco2
        Sfa
        Sh2
        Snh3
        Snh4
        Spro
        Ssu
        Sva
        T
        XI
        Xaa
        Xac
        Xc
        Xc4
        Xch
        Xfa
        Xh2
        Xli
        Xpr
        Xpro
        Xsu
        alphat
        p
        pH
        p_rgh

    Reconstructing volVectorFields

        U

    Reconstructing surfaceScalarFields

        phi

Reconstructing point fields

No point fields

No lagrangian fields

No FA fields

Time = 220

Reconstructing FV fields

    Reconstructing volScalarField::Internals

        dGch4
        dGco2
        dGh2

    Reconstructing volScalarFields

        Gch4
        Gco2
        Gh2
        SI
        SIC
        SIN
        Saa
        Sac
        Sbu
        Sch4
        Sco2
        Sfa
        Sh2
        Snh3
        Snh4
        Spro
        Ssu
        Sva
        T
        XI
        Xaa
        Xac
        Xc
        Xc4
        Xch
        Xfa
        Xh2
        Xli
        Xpr
        Xpro
        Xsu
        alphat
        p
        pH
        p_rgh

    Reconstructing volVectorFields

        U

    Reconstructing surfaceScalarFields

        phi

Reconstructing point fields

No point fields

No lagrangian fields

No FA fields

Time = 230

Reconstructing FV fields

    Reconstructing volScalarField::Internals

        dGch4
        dGco2
        dGh2

    Reconstructing volScalarFields

        Gch4
        Gco2
        Gh2
        SI
        SIC
        SIN
        Saa
        Sac
        Sbu
        Sch4
        Sco2
        Sfa
        Sh2
        Snh3
        Snh4
        Spro
        Ssu
        Sva
        T
        XI
        Xaa
        Xac
        Xc
        Xc4
        Xch
        Xfa
        Xh2
        Xli
        Xpr
        Xpro
        Xsu
        alphat
        p
        pH
        p_rgh

    Reconstructing volVectorFields

        U

    Reconstructing surfaceScalarFields

        phi

Reconstructing point fields

No point fields

No lagrangian fields

No FA fields

Time = 240

Reconstructing FV fields

    Reconstructing volScalarField::Internals

        dGch4
        dGco2
        dGh2

    Reconstructing volScalarFields

        Gch4
        Gco2
        Gh2
        SI
        SIC
        SIN
        Saa
        Sac
        Sbu
        Sch4
        Sco2
        Sfa
        Sh2
        Snh3
        Snh4
        Spro
        Ssu
        Sva
        T
        XI
        Xaa
        Xac
        Xc
        Xc4
        Xch
        Xfa
        Xh2
        Xli
        Xpr
        Xpro
        Xsu
        alphat
        p
        pH
        p_rgh

    Reconstructing volVectorFields

        U

    Reconstructing surfaceScalarFields

        phi

Reconstructing point fields

No point fields

No lagrangian fields

No FA fields

Time = 250

Reconstructing FV fields

    Reconstructing volScalarField::Internals

        dGch4
        dGco2
        dGh2

    Reconstructing volScalarFields

        Gch4
        Gco2
        Gh2
        SI
        SIC
        SIN
        Saa
        Sac
        Sbu
        Sch4
        Sco2
        Sfa
        Sh2
        Snh3
        Snh4
        Spro
        Ssu
        Sva
        T
        XI
        Xaa
        Xac
        Xc
        Xc4
        Xch
        Xfa
        Xh2
        Xli
        Xpr
        Xpro
        Xsu
        alphat
        p
        pH
        p_rgh

    Reconstructing volVectorFields

        U

    Reconstructing surfaceScalarFields

        phi

Reconstructing point fields

No point fields

No lagrangian fields

No FA fields

Time = 260

Reconstructing FV fields

    Reconstructing volScalarField::Internals

        dGch4
        dGco2
        dGh2

    Reconstructing volScalarFields

        Gch4
        Gco2
        Gh2
        SI
        SIC
        SIN
        Saa
        Sac
        Sbu
        Sch4
        Sco2
        Sfa
        Sh2
        Snh3
        Snh4
        Spro
        Ssu
        Sva
        T
        XI
        Xaa
        Xac
        Xc
        Xc4
        Xch
        Xfa
        Xh2
        Xli
        Xpr
        Xpro
        Xsu
        alphat
        p
        pH
        p_rgh

    Reconstructing volVectorFields

        U

    Reconstructing surfaceScalarFields

        phi

Reconstructing point fields

No point fields

No lagrangian fields

No FA fields

Time = 270

Reconstructing FV fields

    Reconstructing volScalarField::Internals

        dGch4
        dGco2
        dGh2

    Reconstructing volScalarFields

        Gch4
        Gco2
        Gh2
        SI
        SIC
        SIN
        Saa
        Sac
        Sbu
        Sch4
        Sco2
        Sfa
        Sh2
        Snh3
        Snh4
        Spro
        Ssu
        Sva
        T
        XI
        Xaa
        Xac
        Xc
        Xc4
        Xch
        Xfa
        Xh2
        Xli
        Xpr
        Xpro
        Xsu
        alphat
        p
        pH
        p_rgh

    Reconstructing volVectorFields

        U

    Reconstructing surfaceScalarFields

        phi

Reconstructing point fields

No point fields

No lagrangian fields

No FA fields

Time = 280

Reconstructing FV fields

    Reconstructing volScalarField::Internals

        dGch4
        dGco2
        dGh2

    Reconstructing volScalarFields

        Gch4
        Gco2
        Gh2
        SI
        SIC
        SIN
        Saa
        Sac
        Sbu
        Sch4
        Sco2
        Sfa
        Sh2
        Snh3
        Snh4
        Spro
        Ssu
        Sva
        T
        XI
        Xaa
        Xac
        Xc
        Xc4
        Xch
        Xfa
        Xh2
        Xli
        Xpr
        Xpro
        Xsu
        alphat
        p
        pH
        p_rgh

    Reconstructing volVectorFields

        U

    Reconstructing surfaceScalarFields

        phi

Reconstructing point fields

No point fields

No lagrangian fields

No FA fields

Time = 290

Reconstructing FV fields

    Reconstructing volScalarField::Internals

        dGch4
        dGco2
        dGh2

    Reconstructing volScalarFields

        Gch4
        Gco2
        Gh2
        SI
        SIC
        SIN
        Saa
        Sac
        Sbu
        Sch4
        Sco2
        Sfa
        Sh2
        Snh3
        Snh4
        Spro
        Ssu
        Sva
        T
        XI
        Xaa
        Xac
        Xc
        Xc4
        Xch
        Xfa
        Xh2
        Xli
        Xpr
        Xpro
        Xsu
        alphat
        p
        pH
        p_rgh

    Reconstructing volVectorFields

        U

    Reconstructing surfaceScalarFields

        phi

Reconstructing point fields

No point fields

No lagrangian fields

No FA fields

Time = 300

Reconstructing FV fields

    Reconstructing volScalarField::Internals

        dGch4
        dGco2
        dGh2

    Reconstructing volScalarFields

        Gch4
        Gco2
        Gh2
        SI
        SIC
        SIN
        Saa
        Sac
        Sbu
        Sch4
        Sco2
        Sfa
        Sh2
        Snh3
        Snh4
        Spro
        Ssu
        Sva
        T
        XI
        Xaa
        Xac
        Xc
        Xc4
        Xch
        Xfa
        Xh2
        Xli
        Xpr
        Xpro
        Xsu
        alphat
        p
        pH
        p_rgh

    Reconstructing volVectorFields

        U

    Reconstructing surfaceScalarFields

        phi

Reconstructing point fields

No point fields

No lagrangian fields

No FA fields

Time = 310

Reconstructing FV fields

    Reconstructing volScalarField::Internals

        dGch4
        dGco2
        dGh2

    Reconstructing volScalarFields

        Gch4
        Gco2
        Gh2
        SI
        SIC
        SIN
        Saa
        Sac
        Sbu
        Sch4
        Sco2
        Sfa
        Sh2
        Snh3
        Snh4
        Spro
        Ssu
        Sva
        T
        XI
        Xaa
        Xac
        Xc
        Xc4
        Xch
        Xfa
        Xh2
        Xli
        Xpr
        Xpro
        Xsu
        alphat
        p
        pH
        p_rgh

    Reconstructing volVectorFields

        U

    Reconstructing surfaceScalarFields

        phi

Reconstructing point fields

No point fields

No lagrangian fields

No FA fields

Time = 320

Reconstructing FV fields

    Reconstructing volScalarField::Internals

        dGch4
        dGco2
        dGh2

    Reconstructing volScalarFields

        Gch4
        Gco2
        Gh2
        SI
        SIC
        SIN
        Saa
        Sac
        Sbu
        Sch4
        Sco2
        Sfa
        Sh2
        Snh3
        Snh4
        Spro
        Ssu
        Sva
        T
        XI
        Xaa
        Xac
        Xc
        Xc4
        Xch
        Xfa
        Xh2
        Xli
        Xpr
        Xpro
        Xsu
        alphat
        p
        pH
        p_rgh

    Reconstructing volVectorFields

        U

    Reconstructing surfaceScalarFields

        phi

Reconstructing point fields

No point fields

No lagrangian fields

No FA fields

Time = 330

Reconstructing FV fields

    Reconstructing volScalarField::Internals

        dGch4
        dGco2
        dGh2

    Reconstructing volScalarFields

        Gch4
        Gco2
        Gh2
        SI
        SIC
        SIN
        Saa
        Sac
        Sbu
        Sch4
        Sco2
        Sfa
        Sh2
        Snh3
        Snh4
        Spro
        Ssu
        Sva
        T
        XI
        Xaa
        Xac
        Xc
        Xc4
        Xch
        Xfa
        Xh2
        Xli
        Xpr
        Xpro
        Xsu
        alphat
        p
        pH
        p_rgh

    Reconstructing volVectorFields

        U

    Reconstructing surfaceScalarFields

        phi

Reconstructing point fields

No point fields

No lagrangian fields

No FA fields

Time = 340

Reconstructing FV fields

    Reconstructing volScalarField::Internals

        dGch4
        dGco2
        dGh2

    Reconstructing volScalarFields

        Gch4
        Gco2
        Gh2
        SI
        SIC
        SIN
        Saa
        Sac
        Sbu
        Sch4
        Sco2
        Sfa
        Sh2
        Snh3
        Snh4
        Spro
        Ssu
        Sva
        T
        XI
        Xaa
        Xac
        Xc
        Xc4
        Xch
        Xfa
        Xh2
        Xli
        Xpr
        Xpro
        Xsu
        alphat
        p
        pH
        p_rgh

    Reconstructing volVectorFields

        U

    Reconstructing surfaceScalarFields

        phi

Reconstructing point fields

No point fields

No lagrangian fields

No FA fields

Time = 350

Reconstructing FV fields

    Reconstructing volScalarField::Internals

        dGch4
        dGco2
        dGh2

    Reconstructing volScalarFields

        Gch4
        Gco2
        Gh2
        SI
        SIC
        SIN
        Saa
        Sac
        Sbu
        Sch4
        Sco2
        Sfa
        Sh2
        Snh3
        Snh4
        Spro
        Ssu
        Sva
        T
        XI
        Xaa
        Xac
        Xc
        Xc4
        Xch
        Xfa
        Xh2
        Xli
        Xpr
        Xpro
        Xsu
        alphat
        p
        pH
        p_rgh

    Reconstructing volVectorFields

        U

    Reconstructing surfaceScalarFields

        phi

Reconstructing point fields

No point fields

No lagrangian fields

No FA fields

Time = 360

Reconstructing FV fields

    Reconstructing volScalarField::Internals

        dGch4
        dGco2
        dGh2

    Reconstructing volScalarFields

        Gch4
        Gco2
        Gh2
        SI
        SIC
        SIN
        Saa
        Sac
        Sbu
        Sch4
        Sco2
        Sfa
        Sh2
        Snh3
        Snh4
        Spro
        Ssu
        Sva
        T
        XI
        Xaa
        Xac
        Xc
        Xc4
        Xch
        Xfa
        Xh2
        Xli
        Xpr
        Xpro
        Xsu
        alphat
        p
        pH
        p_rgh

    Reconstructing volVectorFields

        U

    Reconstructing surfaceScalarFields

        phi

Reconstructing point fields

No point fields

No lagrangian fields

No FA fields

Time = 370

Reconstructing FV fields

    Reconstructing volScalarField::Internals

        dGch4
        dGco2
        dGh2

    Reconstructing volScalarFields

        Gch4
        Gco2
        Gh2
        SI
        SIC
        SIN
        Saa
        Sac
        Sbu
        Sch4
        Sco2
        Sfa
        Sh2
        Snh3
        Snh4
        Spro
        Ssu
        Sva
        T
        XI
        Xaa
        Xac
        Xc
        Xc4
        Xch
        Xfa
        Xh2
        Xli
        Xpr
        Xpro
        Xsu
        alphat
        p
        pH
        p_rgh

    Reconstructing volVectorFields

        U

    Reconstructing surfaceScalarFields

        phi

Reconstructing point fields

No point fields

No lagrangian fields

No FA fields

Time = 380

Reconstructing FV fields

    Reconstructing volScalarField::Internals

        dGch4
        dGco2
        dGh2

    Reconstructing volScalarFields

        Gch4
        Gco2
        Gh2
        SI
        SIC
        SIN
        Saa
        Sac
        Sbu
        Sch4
        Sco2
        Sfa
        Sh2
        Snh3
        Snh4
        Spro
        Ssu
        Sva
        T
        XI
        Xaa
        Xac
        Xc
        Xc4
        Xch
        Xfa
        Xh2
        Xli
        Xpr
        Xpro
        Xsu
        alphat
        p
        pH
        p_rgh

    Reconstructing volVectorFields

        U

    Reconstructing surfaceScalarFields

        phi

Reconstructing point fields

No point fields

No lagrangian fields

No FA fields

Time = 390

Reconstructing FV fields

    Reconstructing volScalarField::Internals

        dGch4
        dGco2
        dGh2

    Reconstructing volScalarFields

        Gch4
        Gco2
        Gh2
        SI
        SIC
        SIN
        Saa
        Sac
        Sbu
        Sch4
        Sco2
        Sfa
        Sh2
        Snh3
        Snh4
        Spro
        Ssu
        Sva
        T
        XI
        Xaa
        Xac
        Xc
        Xc4
        Xch
        Xfa
        Xh2
        Xli
        Xpr
        Xpro
        Xsu
        alphat
        p
        pH
        p_rgh

    Reconstructing volVectorFields

        U

    Reconstructing surfaceScalarFields

        phi

Reconstructing point fields

No point fields

No lagrangian fields

No FA fields

Time = 400

Reconstructing FV fields

    Reconstructing volScalarField::Internals

        dGch4
        dGco2
        dGh2

    Reconstructing volScalarFields

        Gch4
        Gco2
        Gh2
        SI
        SIC
        SIN
        Saa
        Sac
        Sbu
        Sch4
        Sco2
        Sfa
        Sh2
        Snh3
        Snh4
        Spro
        Ssu
        Sva
        T
        XI
        Xaa
        Xac
        Xc
        Xc4
        Xch
        Xfa
        Xh2
        Xli
        Xpr
        Xpro
        Xsu
        alphat
        p
        pH
        p_rgh

    Reconstructing volVectorFields

        U

    Reconstructing surfaceScalarFields

        phi

Reconstructing point fields

No point fields

No lagrangian fields

No FA fields

Time = 410

Reconstructing FV fields

    Reconstructing volScalarField::Internals

        dGch4
        dGco2
        dGh2

    Reconstructing volScalarFields

        Gch4
        Gco2
        Gh2
        SI
        SIC
        SIN
        Saa
        Sac
        Sbu
        Sch4
        Sco2
        Sfa
        Sh2
        Snh3
        Snh4
        Spro
        Ssu
        Sva
        T
        XI
        Xaa
        Xac
        Xc
        Xc4
        Xch
        Xfa
        Xh2
        Xli
        Xpr
        Xpro
        Xsu
        alphat
        p
        pH
        p_rgh

    Reconstructing volVectorFields

        U

    Reconstructing surfaceScalarFields

        phi

Reconstructing point fields

No point fields

No lagrangian fields

No FA fields

Time = 420

Reconstructing FV fields

    Reconstructing volScalarField::Internals

        dGch4
        dGco2
        dGh2

    Reconstructing volScalarFields

        Gch4
        Gco2
        Gh2
        SI
        SIC
        SIN
        Saa
        Sac
        Sbu
        Sch4
        Sco2
        Sfa
        Sh2
        Snh3
        Snh4
        Spro
        Ssu
        Sva
        T
        XI
        Xaa
        Xac
        Xc
        Xc4
        Xch
        Xfa
        Xh2
        Xli
        Xpr
        Xpro
        Xsu
        alphat
        p
        pH
        p_rgh

    Reconstructing volVectorFields

        U

    Reconstructing surfaceScalarFields

        phi

Reconstructing point fields

No point fields

No lagrangian fields

No FA fields

Time = 430

Reconstructing FV fields

    Reconstructing volScalarField::Internals

        dGch4
        dGco2
        dGh2

    Reconstructing volScalarFields

        Gch4
        Gco2
        Gh2
        SI
        SIC
        SIN
        Saa
        Sac
        Sbu
        Sch4
        Sco2
        Sfa
        Sh2
        Snh3
        Snh4
        Spro
        Ssu
        Sva
        T
        XI
        Xaa
        Xac
        Xc
        Xc4
        Xch
        Xfa
        Xh2
        Xli
        Xpr
        Xpro
        Xsu
        alphat
        p
        pH
        p_rgh

    Reconstructing volVectorFields

        U

    Reconstructing surfaceScalarFields

        phi

Reconstructing point fields

No point fields

No lagrangian fields

No FA fields

Time = 440

Reconstructing FV fields

    Reconstructing volScalarField::Internals

        dGch4
        dGco2
        dGh2

    Reconstructing volScalarFields

        Gch4
        Gco2
        Gh2
        SI
        SIC
        SIN
        Saa
        Sac
        Sbu
        Sch4
        Sco2
        Sfa
        Sh2
        Snh3
        Snh4
        Spro
        Ssu
        Sva
        T
        XI
        Xaa
        Xac
        Xc
        Xc4
        Xch
        Xfa
        Xh2
        Xli
        Xpr
        Xpro
        Xsu
        alphat
        p
        pH
        p_rgh

    Reconstructing volVectorFields

        U

    Reconstructing surfaceScalarFields

        phi

Reconstructing point fields

No point fields

No lagrangian fields

No FA fields

Time = 450

Reconstructing FV fields

    Reconstructing volScalarField::Internals

        dGch4
        dGco2
        dGh2

    Reconstructing volScalarFields

        Gch4
        Gco2
        Gh2
        SI
        SIC
        SIN
        Saa
        Sac
        Sbu
        Sch4
        Sco2
        Sfa
        Sh2
        Snh3
        Snh4
        Spro
        Ssu
        Sva
        T
        XI
        Xaa
        Xac
        Xc
        Xc4
        Xch
        Xfa
        Xh2
        Xli
        Xpr
        Xpro
        Xsu
        alphat
        p
        pH
        p_rgh

    Reconstructing volVectorFields

        U

    Reconstructing surfaceScalarFields

        phi

Reconstructing point fields

No point fields

No lagrangian fields

No FA fields

Time = 460

Reconstructing FV fields

    Reconstructing volScalarField::Internals

        dGch4
        dGco2
        dGh2

    Reconstructing volScalarFields

        Gch4
        Gco2
        Gh2
        SI
        SIC
        SIN
        Saa
        Sac
        Sbu
        Sch4
        Sco2
        Sfa
        Sh2
        Snh3
        Snh4
        Spro
        Ssu
        Sva
        T
        XI
        Xaa
        Xac
        Xc
        Xc4
        Xch
        Xfa
        Xh2
        Xli
        Xpr
        Xpro
        Xsu
        alphat
        p
        pH
        p_rgh

    Reconstructing volVectorFields

        U

    Reconstructing surfaceScalarFields

        phi

Reconstructing point fields

No point fields

No lagrangian fields

No FA fields

Time = 470

Reconstructing FV fields

    Reconstructing volScalarField::Internals

        dGch4
        dGco2
        dGh2

    Reconstructing volScalarFields

        Gch4
        Gco2
        Gh2
        SI
        SIC
        SIN
        Saa
        Sac
        Sbu
        Sch4
        Sco2
        Sfa
        Sh2
        Snh3
        Snh4
        Spro
        Ssu
        Sva
        T
        XI
        Xaa
        Xac
        Xc
        Xc4
        Xch
        Xfa
        Xh2
        Xli
        Xpr
        Xpro
        Xsu
        alphat
        p
        pH
        p_rgh

    Reconstructing volVectorFields

        U

    Reconstructing surfaceScalarFields

        phi

Reconstructing point fields

No point fields

No lagrangian fields

No FA fields

Time = 480

Reconstructing FV fields

    Reconstructing volScalarField::Internals

        dGch4
        dGco2
        dGh2

    Reconstructing volScalarFields

        Gch4
        Gco2
        Gh2
        SI
        SIC
        SIN
        Saa
        Sac
        Sbu
        Sch4
        Sco2
        Sfa
        Sh2
        Snh3
        Snh4
        Spro
        Ssu
        Sva
        T
        XI
        Xaa
        Xac
        Xc
        Xc4
        Xch
        Xfa
        Xh2
        Xli
        Xpr
        Xpro
        Xsu
        alphat
        p
        pH
        p_rgh

    Reconstructing volVectorFields

        U

    Reconstructing surfaceScalarFields

        phi

Reconstructing point fields

No point fields

No lagrangian fields

No FA fields

Time = 490

Reconstructing FV fields

    Reconstructing volScalarField::Internals

        dGch4
        dGco2
        dGh2

    Reconstructing volScalarFields

        Gch4
        Gco2
        Gh2
        SI
        SIC
        SIN
        Saa
        Sac
        Sbu
        Sch4
        Sco2
        Sfa
        Sh2
        Snh3
        Snh4
        Spro
        Ssu
        Sva
        T
        XI
        Xaa
        Xac
        Xc
        Xc4
        Xch
        Xfa
        Xh2
        Xli
        Xpr
        Xpro
        Xsu
        alphat
        p
        pH
        p_rgh

    Reconstructing volVectorFields

        U

    Reconstructing surfaceScalarFields

        phi

Reconstructing point fields

No point fields

No lagrangian fields

No FA fields

Time = 500

Reconstructing FV fields

    Reconstructing volScalarField::Internals

        dGch4
        dGco2
        dGh2

    Reconstructing volScalarFields

        Gch4
        Gco2
        Gh2
        SI
        SIC
        SIN
        Saa
        Sac
        Sbu
        Sch4
        Sco2
        Sfa
        Sh2
        Snh3
        Snh4
        Spro
        Ssu
        Sva
        T
        XI
        Xaa
        Xac
        Xc
        Xc4
        Xch
        Xfa
        Xh2
        Xli
        Xpr
        Xpro
        Xsu
        alphat
        p
        pH
        p_rgh

    Reconstructing volVectorFields

        U

    Reconstructing surfaceScalarFields

        phi

Reconstructing point fields

No point fields

No lagrangian fields

No FA fields

Time = 510

Reconstructing FV fields

    Reconstructing volScalarField::Internals

        dGch4
        dGco2
        dGh2

    Reconstructing volScalarFields

        Gch4
        Gco2
        Gh2
        SI
        SIC
        SIN
        Saa
        Sac
        Sbu
        Sch4
        Sco2
        Sfa
        Sh2
        Snh3
        Snh4
        Spro
        Ssu
        Sva
        T
        XI
        Xaa
        Xac
        Xc
        Xc4
        Xch
        Xfa
        Xh2
        Xli
        Xpr
        Xpro
        Xsu
        alphat
        p
        pH
        p_rgh

    Reconstructing volVectorFields

        U

    Reconstructing surfaceScalarFields

        phi

Reconstructing point fields

No point fields

No lagrangian fields

No FA fields

Time = 520

Reconstructing FV fields

    Reconstructing volScalarField::Internals

        dGch4
        dGco2
        dGh2

    Reconstructing volScalarFields

        Gch4
        Gco2
        Gh2
        SI
        SIC
        SIN
        Saa
        Sac
        Sbu
        Sch4
        Sco2
        Sfa
        Sh2
        Snh3
        Snh4
        Spro
        Ssu
        Sva
        T
        XI
        Xaa
        Xac
        Xc
        Xc4
        Xch
        Xfa
        Xh2
        Xli
        Xpr
        Xpro
        Xsu
        alphat
        p
        pH
        p_rgh

    Reconstructing volVectorFields

        U

    Reconstructing surfaceScalarFields

        phi

Reconstructing point fields

No point fields

No lagrangian fields

No FA fields

Time = 530

Reconstructing FV fields

    Reconstructing volScalarField::Internals

        dGch4
        dGco2
        dGh2

    Reconstructing volScalarFields

        Gch4
        Gco2
        Gh2
        SI
        SIC
        SIN
        Saa
        Sac
        Sbu
        Sch4
        Sco2
        Sfa
        Sh2
        Snh3
        Snh4
        Spro
        Ssu
        Sva
        T
        XI
        Xaa
        Xac
        Xc
        Xc4
        Xch
        Xfa
        Xh2
        Xli
        Xpr
        Xpro
        Xsu
        alphat
        p
        pH
        p_rgh

    Reconstructing volVectorFields

        U

    Reconstructing surfaceScalarFields

        phi

Reconstructing point fields

No point fields

No lagrangian fields

No FA fields

Time = 540

Reconstructing FV fields

    Reconstructing volScalarField::Internals

        dGch4
        dGco2
        dGh2

    Reconstructing volScalarFields

        Gch4
        Gco2
        Gh2
        SI
        SIC
        SIN
        Saa
        Sac
        Sbu
        Sch4
        Sco2
        Sfa
        Sh2
        Snh3
        Snh4
        Spro
        Ssu
        Sva
        T
        XI
        Xaa
        Xac
        Xc
        Xc4
        Xch
        Xfa
        Xh2
        Xli
        Xpr
        Xpro
        Xsu
        alphat
        p
        pH
        p_rgh

    Reconstructing volVectorFields

        U

    Reconstructing surfaceScalarFields

        phi

Reconstructing point fields

No point fields

No lagrangian fields

No FA fields

Time = 550

Reconstructing FV fields

    Reconstructing volScalarField::Internals

        dGch4
        dGco2
        dGh2

    Reconstructing volScalarFields

        Gch4
        Gco2
        Gh2
        SI
        SIC
        SIN
        Saa
        Sac
        Sbu
        Sch4
        Sco2
        Sfa
        Sh2
        Snh3
        Snh4
        Spro
        Ssu
        Sva
        T
        XI
        Xaa
        Xac
        Xc
        Xc4
        Xch
        Xfa
        Xh2
        Xli
        Xpr
        Xpro
        Xsu
        alphat
        p
        pH
        p_rgh

    Reconstructing volVectorFields

        U

    Reconstructing surfaceScalarFields

        phi

Reconstructing point fields

No point fields

No lagrangian fields

No FA fields

Time = 560

Reconstructing FV fields

    Reconstructing volScalarField::Internals

        dGch4
        dGco2
        dGh2

    Reconstructing volScalarFields

        Gch4
        Gco2
        Gh2
        SI
        SIC
        SIN
        Saa
        Sac
        Sbu
        Sch4
        Sco2
        Sfa
        Sh2
        Snh3
        Snh4
        Spro
        Ssu
        Sva
        T
        XI
        Xaa
        Xac
        Xc
        Xc4
        Xch
        Xfa
        Xh2
        Xli
        Xpr
        Xpro
        Xsu
        alphat
        p
        pH
        p_rgh

    Reconstructing volVectorFields

        U

    Reconstructing surfaceScalarFields

        phi

Reconstructing point fields

No point fields

No lagrangian fields

No FA fields

Time = 570

Reconstructing FV fields

    Reconstructing volScalarField::Internals

        dGch4
        dGco2
        dGh2

    Reconstructing volScalarFields

        Gch4
        Gco2
        Gh2
        SI
        SIC
        SIN
        Saa
        Sac
        Sbu
        Sch4
        Sco2
        Sfa
        Sh2
        Snh3
        Snh4
        Spro
        Ssu
        Sva
        T
        XI
        Xaa
        Xac
        Xc
        Xc4
        Xch
        Xfa
        Xh2
        Xli
        Xpr
        Xpro
        Xsu
        alphat
        p
        pH
        p_rgh

    Reconstructing volVectorFields

        U

    Reconstructing surfaceScalarFields

        phi

Reconstructing point fields

No point fields

No lagrangian fields

No FA fields

Time = 580

Reconstructing FV fields

    Reconstructing volScalarField::Internals

        dGch4
        dGco2
        dGh2

    Reconstructing volScalarFields

        Gch4
        Gco2
        Gh2
        SI
        SIC
        SIN
        Saa
        Sac
        Sbu
        Sch4
        Sco2
        Sfa
        Sh2
        Snh3
        Snh4
        Spro
        Ssu
        Sva
        T
        XI
        Xaa
        Xac
        Xc
        Xc4
        Xch
        Xfa
        Xh2
        Xli
        Xpr
        Xpro
        Xsu
        alphat
        p
        pH
        p_rgh

    Reconstructing volVectorFields

        U

    Reconstructing surfaceScalarFields

        phi

Reconstructing point fields

No point fields

No lagrangian fields

No FA fields

Time = 590

Reconstructing FV fields

    Reconstructing volScalarField::Internals

        dGch4
        dGco2
        dGh2

    Reconstructing volScalarFields

        Gch4
        Gco2
        Gh2
        SI
        SIC
        SIN
        Saa
        Sac
        Sbu
        Sch4
        Sco2
        Sfa
        Sh2
        Snh3
        Snh4
        Spro
        Ssu
        Sva
        T
        XI
        Xaa
        Xac
        Xc
        Xc4
        Xch
        Xfa
        Xh2
        Xli
        Xpr
        Xpro
        Xsu
        alphat
        p
        pH
        p_rgh

    Reconstructing volVectorFields

        U

    Reconstructing surfaceScalarFields

        phi

Reconstructing point fields

No point fields

No lagrangian fields

No FA fields

Time = 600

Reconstructing FV fields

    Reconstructing volScalarField::Internals

        dGch4
        dGco2
        dGh2

    Reconstructing volScalarFields

        Gch4
        Gco2
        Gh2
        SI
        SIC
        SIN
        Saa
        Sac
        Sbu
        Sch4
        Sco2
        Sfa
        Sh2
        Snh3
        Snh4
        Spro
        Ssu
        Sva
        T
        XI
        Xaa
        Xac
        Xc
        Xc4
        Xch
        Xfa
        Xh2
        Xli
        Xpr
        Xpro
        Xsu
        alphat
        p
        pH
        p_rgh

    Reconstructing volVectorFields

        U

    Reconstructing surfaceScalarFields

        phi

Reconstructing point fields

No point fields

No lagrangian fields

No FA fields

Time = 610

Reconstructing FV fields

    Reconstructing volScalarField::Internals

        dGch4
        dGco2
        dGh2

    Reconstructing volScalarFields

        Gch4
        Gco2
        Gh2
        SI
        SIC
        SIN
        Saa
        Sac
        Sbu
        Sch4
        Sco2
        Sfa
        Sh2
        Snh3
        Snh4
        Spro
        Ssu
        Sva
        T
        XI
        Xaa
        Xac
        Xc
        Xc4
        Xch
        Xfa
        Xh2
        Xli
        Xpr
        Xpro
        Xsu
        alphat
        p
        pH
        p_rgh

    Reconstructing volVectorFields

        U

    Reconstructing surfaceScalarFields

        phi

Reconstructing point fields

No point fields

No lagrangian fields

No FA fields

Time = 620

Reconstructing FV fields

    Reconstructing volScalarField::Internals

        dGch4
        dGco2
        dGh2

    Reconstructing volScalarFields

        Gch4
        Gco2
        Gh2
        SI
        SIC
        SIN
        Saa
        Sac
        Sbu
        Sch4
        Sco2
        Sfa
        Sh2
        Snh3
        Snh4
        Spro
        Ssu
        Sva
        T
        XI
        Xaa
        Xac
        Xc
        Xc4
        Xch
        Xfa
        Xh2
        Xli
        Xpr
        Xpro
        Xsu
        alphat
        p
        pH
        p_rgh

    Reconstructing volVectorFields

        U

    Reconstructing surfaceScalarFields

        phi

Reconstructing point fields

No point fields

No lagrangian fields

No FA fields

Time = 630

Reconstructing FV fields

    Reconstructing volScalarField::Internals

        dGch4
        dGco2
        dGh2

    Reconstructing volScalarFields

        Gch4
        Gco2
        Gh2
        SI
        SIC
        SIN
        Saa
        Sac
        Sbu
        Sch4
        Sco2
        Sfa
        Sh2
        Snh3
        Snh4
        Spro
        Ssu
        Sva
        T
        XI
        Xaa
        Xac
        Xc
        Xc4
        Xch
        Xfa
        Xh2
        Xli
        Xpr
        Xpro
        Xsu
        alphat
        p
        pH
        p_rgh

    Reconstructing volVectorFields

        U

    Reconstructing surfaceScalarFields

        phi

Reconstructing point fields

No point fields

No lagrangian fields

No FA fields

Time = 640

Reconstructing FV fields

    Reconstructing volScalarField::Internals

        dGch4
        dGco2
        dGh2

    Reconstructing volScalarFields

        Gch4
        Gco2
        Gh2
        SI
        SIC
        SIN
        Saa
        Sac
        Sbu
        Sch4
        Sco2
        Sfa
        Sh2
        Snh3
        Snh4
        Spro
        Ssu
        Sva
        T
        XI
        Xaa
        Xac
        Xc
        Xc4
        Xch
        Xfa
        Xh2
        Xli
        Xpr
        Xpro
        Xsu
        alphat
        p
        pH
        p_rgh

    Reconstructing volVectorFields

        U

    Reconstructing surfaceScalarFields

        phi

Reconstructing point fields

No point fields

No lagrangian fields

No FA fields

Time = 650

Reconstructing FV fields

    Reconstructing volScalarField::Internals

        dGch4
        dGco2
        dGh2

    Reconstructing volScalarFields

        Gch4
        Gco2
        Gh2
        SI
        SIC
        SIN
        Saa
        Sac
        Sbu
        Sch4
        Sco2
        Sfa
        Sh2
        Snh3
        Snh4
        Spro
        Ssu
        Sva
        T
        XI
        Xaa
        Xac
        Xc
        Xc4
        Xch
        Xfa
        Xh2
        Xli
        Xpr
        Xpro
        Xsu
        alphat
        p
        pH
        p_rgh

    Reconstructing volVectorFields

        U

    Reconstructing surfaceScalarFields

        phi

Reconstructing point fields

No point fields

No lagrangian fields

No FA fields

Time = 660

Reconstructing FV fields

    Reconstructing volScalarField::Internals

        dGch4
        dGco2
        dGh2

    Reconstructing volScalarFields

        Gch4
        Gco2
        Gh2
        SI
        SIC
        SIN
        Saa
        Sac
        Sbu
        Sch4
        Sco2
        Sfa
        Sh2
        Snh3
        Snh4
        Spro
        Ssu
        Sva
        T
        XI
        Xaa
        Xac
        Xc
        Xc4
        Xch
        Xfa
        Xh2
        Xli
        Xpr
        Xpro
        Xsu
        alphat
        p
        pH
        p_rgh

    Reconstructing volVectorFields

        U

    Reconstructing surfaceScalarFields

        phi

Reconstructing point fields

No point fields

No lagrangian fields

No FA fields

Time = 670

Reconstructing FV fields

    Reconstructing volScalarField::Internals

        dGch4
        dGco2
        dGh2

    Reconstructing volScalarFields

        Gch4
        Gco2
        Gh2
        SI
        SIC
        SIN
        Saa
        Sac
        Sbu
        Sch4
        Sco2
        Sfa
        Sh2
        Snh3
        Snh4
        Spro
        Ssu
        Sva
        T
        XI
        Xaa
        Xac
        Xc
        Xc4
        Xch
        Xfa
        Xh2
        Xli
        Xpr
        Xpro
        Xsu
        alphat
        p
        pH
        p_rgh

    Reconstructing volVectorFields

        U

    Reconstructing surfaceScalarFields

        phi

Reconstructing point fields

No point fields

No lagrangian fields

No FA fields

Time = 680

Reconstructing FV fields

    Reconstructing volScalarField::Internals

        dGch4
        dGco2
        dGh2

    Reconstructing volScalarFields

        Gch4
        Gco2
        Gh2
        SI
        SIC
        SIN
        Saa
        Sac
        Sbu
        Sch4
        Sco2
        Sfa
        Sh2
        Snh3
        Snh4
        Spro
        Ssu
        Sva
        T
        XI
        Xaa
        Xac
        Xc
        Xc4
        Xch
        Xfa
        Xh2
        Xli
        Xpr
        Xpro
        Xsu
        alphat
        p
        pH
        p_rgh

    Reconstructing volVectorFields

        U

    Reconstructing surfaceScalarFields

        phi

Reconstructing point fields

No point fields

No lagrangian fields

No FA fields

Time = 690

Reconstructing FV fields

    Reconstructing volScalarField::Internals

        dGch4
        dGco2
        dGh2

    Reconstructing volScalarFields

        Gch4
        Gco2
        Gh2
        SI
        SIC
        SIN
        Saa
        Sac
        Sbu
        Sch4
        Sco2
        Sfa
        Sh2
        Snh3
        Snh4
        Spro
        Ssu
        Sva
        T
        XI
        Xaa
        Xac
        Xc
        Xc4
        Xch
        Xfa
        Xh2
        Xli
        Xpr
        Xpro
        Xsu
        alphat
        p
        pH
        p_rgh

    Reconstructing volVectorFields

        U

    Reconstructing surfaceScalarFields

        phi

Reconstructing point fields

No point fields

No lagrangian fields

No FA fields

Time = 700

Reconstructing FV fields

    Reconstructing volScalarField::Internals

        dGch4
        dGco2
        dGh2

    Reconstructing volScalarFields

        Gch4
        Gco2
        Gh2
        SI
        SIC
        SIN
        Saa
        Sac
        Sbu
        Sch4
        Sco2
        Sfa
        Sh2
        Snh3
        Snh4
        Spro
        Ssu
        Sva
        T
        XI
        Xaa
        Xac
        Xc
        Xc4
        Xch
        Xfa
        Xh2
        Xli
        Xpr
        Xpro
        Xsu
        alphat
        p
        pH
        p_rgh

    Reconstructing volVectorFields

        U

    Reconstructing surfaceScalarFields

        phi

Reconstructing point fields

No point fields

No lagrangian fields

No FA fields

Time = 710

Reconstructing FV fields

    Reconstructing volScalarField::Internals

        dGch4
        dGco2
        dGh2

    Reconstructing volScalarFields

        Gch4
        Gco2
        Gh2
        SI
        SIC
        SIN
        Saa
        Sac
        Sbu
        Sch4
        Sco2
        Sfa
        Sh2
        Snh3
        Snh4
        Spro
        Ssu
        Sva
        T
        XI
        Xaa
        Xac
        Xc
        Xc4
        Xch
        Xfa
        Xh2
        Xli
        Xpr
        Xpro
        Xsu
        alphat
        p
        pH
        p_rgh

    Reconstructing volVectorFields

        U

    Reconstructing surfaceScalarFields

        phi

Reconstructing point fields

No point fields

No lagrangian fields

No FA fields

Time = 720

Reconstructing FV fields

    Reconstructing volScalarField::Internals

        dGch4
        dGco2
        dGh2

    Reconstructing volScalarFields

        Gch4
        Gco2
        Gh2
        SI
        SIC
        SIN
        Saa
        Sac
        Sbu
        Sch4
        Sco2
        Sfa
        Sh2
        Snh3
        Snh4
        Spro
        Ssu
        Sva
        T
        XI
        Xaa
        Xac
        Xc
        Xc4
        Xch
        Xfa
        Xh2
        Xli
        Xpr
        Xpro
        Xsu
        alphat
        p
        pH
        p_rgh

    Reconstructing volVectorFields

        U

    Reconstructing surfaceScalarFields

        phi

Reconstructing point fields

No point fields

No lagrangian fields

No FA fields

Time = 730

Reconstructing FV fields

    Reconstructing volScalarField::Internals

        dGch4
        dGco2
        dGh2

    Reconstructing volScalarFields

        Gch4
        Gco2
        Gh2
        SI
        SIC
        SIN
        Saa
        Sac
        Sbu
        Sch4
        Sco2
        Sfa
        Sh2
        Snh3
        Snh4
        Spro
        Ssu
        Sva
        T
        XI
        Xaa
        Xac
        Xc
        Xc4
        Xch
        Xfa
        Xh2
        Xli
        Xpr
        Xpro
        Xsu
        alphat
        p
        pH
        p_rgh

    Reconstructing volVectorFields

        U

    Reconstructing surfaceScalarFields

        phi

Reconstructing point fields

No point fields

No lagrangian fields

No FA fields

Time = 740

Reconstructing FV fields

    Reconstructing volScalarField::Internals

        dGch4
        dGco2
        dGh2

    Reconstructing volScalarFields

        Gch4
        Gco2
        Gh2
        SI
        SIC
        SIN
        Saa
        Sac
        Sbu
        Sch4
        Sco2
        Sfa
        Sh2
        Snh3
        Snh4
        Spro
        Ssu
        Sva
        T
        XI
        Xaa
        Xac
        Xc
        Xc4
        Xch
        Xfa
        Xh2
        Xli
        Xpr
        Xpro
        Xsu
        alphat
        p
        pH
        p_rgh

    Reconstructing volVectorFields

        U

    Reconstructing surfaceScalarFields

        phi

Reconstructing point fields

No point fields

No lagrangian fields

No FA fields

Time = 750

Reconstructing FV fields

    Reconstructing volScalarField::Internals

        dGch4
        dGco2
        dGh2

    Reconstructing volScalarFields

        Gch4
        Gco2
        Gh2
        SI
        SIC
        SIN
        Saa
        Sac
        Sbu
        Sch4
        Sco2
        Sfa
        Sh2
        Snh3
        Snh4
        Spro
        Ssu
        Sva
        T
        XI
        Xaa
        Xac
        Xc
        Xc4
        Xch
        Xfa
        Xh2
        Xli
        Xpr
        Xpro
        Xsu
        alphat
        p
        pH
        p_rgh

    Reconstructing volVectorFields

        U

    Reconstructing surfaceScalarFields

        phi

Reconstructing point fields

No point fields

No lagrangian fields

No FA fields

Time = 760

Reconstructing FV fields

    Reconstructing volScalarField::Internals

        dGch4
        dGco2
        dGh2

    Reconstructing volScalarFields

        Gch4
        Gco2
        Gh2
        SI
        SIC
        SIN
        Saa
        Sac
        Sbu
        Sch4
        Sco2
        Sfa
        Sh2
        Snh3
        Snh4
        Spro
        Ssu
        Sva
        T
        XI
        Xaa
        Xac
        Xc
        Xc4
        Xch
        Xfa
        Xh2
        Xli
        Xpr
        Xpro
        Xsu
        alphat
        p
        pH
        p_rgh

    Reconstructing volVectorFields

        U

    Reconstructing surfaceScalarFields

        phi

Reconstructing point fields

No point fields

No lagrangian fields

No FA fields

Time = 770

Reconstructing FV fields

    Reconstructing volScalarField::Internals

        dGch4
        dGco2
        dGh2

    Reconstructing volScalarFields

        Gch4
        Gco2
        Gh2
        SI
        SIC
        SIN
        Saa
        Sac
        Sbu
        Sch4
        Sco2
        Sfa
        Sh2
        Snh3
        Snh4
        Spro
        Ssu
        Sva
        T
        XI
        Xaa
        Xac
        Xc
        Xc4
        Xch
        Xfa
        Xh2
        Xli
        Xpr
        Xpro
        Xsu
        alphat
        p
        pH
        p_rgh

    Reconstructing volVectorFields

        U

    Reconstructing surfaceScalarFields

        phi

Reconstructing point fields

No point fields

No lagrangian fields

No FA fields

Time = 780

Reconstructing FV fields

    Reconstructing volScalarField::Internals

        dGch4
        dGco2
        dGh2

    Reconstructing volScalarFields

        Gch4
        Gco2
        Gh2
        SI
        SIC
        SIN
        Saa
        Sac
        Sbu
        Sch4
        Sco2
        Sfa
        Sh2
        Snh3
        Snh4
        Spro
        Ssu
        Sva
        T
        XI
        Xaa
        Xac
        Xc
        Xc4
        Xch
        Xfa
        Xh2
        Xli
        Xpr
        Xpro
        Xsu
        alphat
        p
        pH
        p_rgh

    Reconstructing volVectorFields

        U

    Reconstructing surfaceScalarFields

        phi

Reconstructing point fields

No point fields

No lagrangian fields

No FA fields

Time = 790

Reconstructing FV fields

    Reconstructing volScalarField::Internals

        dGch4
        dGco2
        dGh2

    Reconstructing volScalarFields

        Gch4
        Gco2
        Gh2
        SI
        SIC
        SIN
        Saa
        Sac
        Sbu
        Sch4
        Sco2
        Sfa
        Sh2
        Snh3
        Snh4
        Spro
        Ssu
        Sva
        T
        XI
        Xaa
        Xac
        Xc
        Xc4
        Xch
        Xfa
        Xh2
        Xli
        Xpr
        Xpro
        Xsu
        alphat
        p
        pH
        p_rgh

    Reconstructing volVectorFields

        U

    Reconstructing surfaceScalarFields

        phi

Reconstructing point fields

No point fields

No lagrangian fields

No FA fields

Time = 800

Reconstructing FV fields

    Reconstructing volScalarField::Internals

        dGch4
        dGco2
        dGh2

    Reconstructing volScalarFields

        Gch4
        Gco2
        Gh2
        SI
        SIC
        SIN
        Saa
        Sac
        Sbu
        Sch4
        Sco2
        Sfa
        Sh2
        Snh3
        Snh4
        Spro
        Ssu
        Sva
        T
        XI
        Xaa
        Xac
        Xc
        Xc4
        Xch
        Xfa
        Xh2
        Xli
        Xpr
        Xpro
        Xsu
        alphat
        p
        pH
        p_rgh

    Reconstructing volVectorFields

        U

    Reconstructing surfaceScalarFields

        phi

Reconstructing point fields

No point fields

No lagrangian fields

No FA fields

Time = 810

Reconstructing FV fields

    Reconstructing volScalarField::Internals

        dGch4
        dGco2
        dGh2

    Reconstructing volScalarFields

        Gch4
        Gco2
        Gh2
        SI
        SIC
        SIN
        Saa
        Sac
        Sbu
        Sch4
        Sco2
        Sfa
        Sh2
        Snh3
        Snh4
        Spro
        Ssu
        Sva
        T
        XI
        Xaa
        Xac
        Xc
        Xc4
        Xch
        Xfa
        Xh2
        Xli
        Xpr
        Xpro
        Xsu
        alphat
        p
        pH
        p_rgh

    Reconstructing volVectorFields

        U

    Reconstructing surfaceScalarFields

        phi

Reconstructing point fields

No point fields

No lagrangian fields

No FA fields

Time = 820

Reconstructing FV fields

    Reconstructing volScalarField::Internals

        dGch4
        dGco2
        dGh2

    Reconstructing volScalarFields

        Gch4
        Gco2
        Gh2
        SI
        SIC
        SIN
        Saa
        Sac
        Sbu
        Sch4
        Sco2
        Sfa
        Sh2
        Snh3
        Snh4
        Spro
        Ssu
        Sva
        T
        XI
        Xaa
        Xac
        Xc
        Xc4
        Xch
        Xfa
        Xh2
        Xli
        Xpr
        Xpro
        Xsu
        alphat
        p
        pH
        p_rgh

    Reconstructing volVectorFields

        U

    Reconstructing surfaceScalarFields

        phi

Reconstructing point fields

No point fields

No lagrangian fields

No FA fields

Time = 830

Reconstructing FV fields

    Reconstructing volScalarField::Internals

        dGch4
        dGco2
        dGh2

    Reconstructing volScalarFields

        Gch4
        Gco2
        Gh2
        SI
        SIC
        SIN
        Saa
        Sac
        Sbu
        Sch4
        Sco2
        Sfa
        Sh2
        Snh3
        Snh4
        Spro
        Ssu
        Sva
        T
        XI
        Xaa
        Xac
        Xc
        Xc4
        Xch
        Xfa
        Xh2
        Xli
        Xpr
        Xpro
        Xsu
        alphat
        p
        pH
        p_rgh

    Reconstructing volVectorFields

        U

    Reconstructing surfaceScalarFields

        phi

Reconstructing point fields

No point fields

No lagrangian fields

No FA fields

Time = 840

Reconstructing FV fields

    Reconstructing volScalarField::Internals

        dGch4
        dGco2
        dGh2

    Reconstructing volScalarFields

        Gch4
        Gco2
        Gh2
        SI
        SIC
        SIN
        Saa
        Sac
        Sbu
        Sch4
        Sco2
        Sfa
        Sh2
        Snh3
        Snh4
        Spro
        Ssu
        Sva
        T
        XI
        Xaa
        Xac
        Xc
        Xc4
        Xch
        Xfa
        Xh2
        Xli
        Xpr
        Xpro
        Xsu
        alphat
        p
        pH
        p_rgh

    Reconstructing volVectorFields

        U

    Reconstructing surfaceScalarFields

        phi

Reconstructing point fields

No point fields

No lagrangian fields

No FA fields

Time = 850

Reconstructing FV fields

    Reconstructing volScalarField::Internals

        dGch4
        dGco2
        dGh2

    Reconstructing volScalarFields

        Gch4
        Gco2
        Gh2
        SI
        SIC
        SIN
        Saa
        Sac
        Sbu
        Sch4
        Sco2
        Sfa
        Sh2
        Snh3
        Snh4
        Spro
        Ssu
        Sva
        T
        XI
        Xaa
        Xac
        Xc
        Xc4
        Xch
        Xfa
        Xh2
        Xli
        Xpr
        Xpro
        Xsu
        alphat
        p
        pH
        p_rgh

    Reconstructing volVectorFields

        U

    Reconstructing surfaceScalarFields

        phi

Reconstructing point fields

No point fields

No lagrangian fields

No FA fields

Time = 860

Reconstructing FV fields

    Reconstructing volScalarField::Internals

        dGch4
        dGco2
        dGh2

    Reconstructing volScalarFields

        Gch4
        Gco2
        Gh2
        SI
        SIC
        SIN
        Saa
        Sac
        Sbu
        Sch4
        Sco2
        Sfa
        Sh2
        Snh3
        Snh4
        Spro
        Ssu
        Sva
        T
        XI
        Xaa
        Xac
        Xc
        Xc4
        Xch
        Xfa
        Xh2
        Xli
        Xpr
        Xpro
        Xsu
        alphat
        p
        pH
        p_rgh

    Reconstructing volVectorFields

        U

    Reconstructing surfaceScalarFields

        phi

Reconstructing point fields

No point fields

No lagrangian fields

No FA fields

Time = 870

Reconstructing FV fields

    Reconstructing volScalarField::Internals

        dGch4
        dGco2
        dGh2

    Reconstructing volScalarFields

        Gch4
        Gco2
        Gh2
        SI
        SIC
        SIN
        Saa
        Sac
        Sbu
        Sch4
        Sco2
        Sfa
        Sh2
        Snh3
        Snh4
        Spro
        Ssu
        Sva
        T
        XI
        Xaa
        Xac
        Xc
        Xc4
        Xch
        Xfa
        Xh2
        Xli
        Xpr
        Xpro
        Xsu
        alphat
        p
        pH
        p_rgh

    Reconstructing volVectorFields

        U

    Reconstructing surfaceScalarFields

        phi

Reconstructing point fields

No point fields

No lagrangian fields

No FA fields

Time = 880

Reconstructing FV fields

    Reconstructing volScalarField::Internals

        dGch4
        dGco2
        dGh2

    Reconstructing volScalarFields

        Gch4
        Gco2
        Gh2
        SI
        SIC
        SIN
        Saa
        Sac
        Sbu
        Sch4
        Sco2
        Sfa
        Sh2
        Snh3
        Snh4
        Spro
        Ssu
        Sva
        T
        XI
        Xaa
        Xac
        Xc
        Xc4
        Xch
        Xfa
        Xh2
        Xli
        Xpr
        Xpro
        Xsu
        alphat
        p
        pH
        p_rgh

    Reconstructing volVectorFields

        U

    Reconstructing surfaceScalarFields

        phi

Reconstructing point fields

No point fields

No lagrangian fields

No FA fields

Time = 890

Reconstructing FV fields

    Reconstructing volScalarField::Internals

        dGch4
        dGco2
        dGh2

    Reconstructing volScalarFields

        Gch4
        Gco2
        Gh2
        SI
        SIC
        SIN
        Saa
        Sac
        Sbu
        Sch4
        Sco2
        Sfa
        Sh2
        Snh3
        Snh4
        Spro
        Ssu
        Sva
        T
        XI
        Xaa
        Xac
        Xc
        Xc4
        Xch
        Xfa
        Xh2
        Xli
        Xpr
        Xpro
        Xsu
        alphat
        p
        pH
        p_rgh

    Reconstructing volVectorFields

        U

    Reconstructing surfaceScalarFields

        phi

Reconstructing point fields

No point fields

No lagrangian fields

No FA fields

Time = 900

Reconstructing FV fields

    Reconstructing volScalarField::Internals

        dGch4
        dGco2
        dGh2

    Reconstructing volScalarFields

        Gch4
        Gco2
        Gh2
        SI
        SIC
        SIN
        Saa
        Sac
        Sbu
        Sch4
        Sco2
        Sfa
        Sh2
        Snh3
        Snh4
        Spro
        Ssu
        Sva
        T
        XI
        Xaa
        Xac
        Xc
        Xc4
        Xch
        Xfa
        Xh2
        Xli
        Xpr
        Xpro
        Xsu
        alphat
        p
        pH
        p_rgh

    Reconstructing volVectorFields

        U

    Reconstructing surfaceScalarFields

        phi

Reconstructing point fields

No point fields

No lagrangian fields

No FA fields

Time = 910

Reconstructing FV fields

    Reconstructing volScalarField::Internals

        dGch4
        dGco2
        dGh2

    Reconstructing volScalarFields

        Gch4
        Gco2
        Gh2
        SI
        SIC
        SIN
        Saa
        Sac
        Sbu
        Sch4
        Sco2
        Sfa
        Sh2
        Snh3
        Snh4
        Spro
        Ssu
        Sva
        T
        XI
        Xaa
        Xac
        Xc
        Xc4
        Xch
        Xfa
        Xh2
        Xli
        Xpr
        Xpro
        Xsu
        alphat
        p
        pH
        p_rgh

    Reconstructing volVectorFields

        U

    Reconstructing surfaceScalarFields

        phi

Reconstructing point fields

No point fields

No lagrangian fields

No FA fields

Time = 920

Reconstructing FV fields

    Reconstructing volScalarField::Internals

        dGch4
        dGco2
        dGh2

    Reconstructing volScalarFields

        Gch4
        Gco2
        Gh2
        SI
        SIC
        SIN
        Saa
        Sac
        Sbu
        Sch4
        Sco2
        Sfa
        Sh2
        Snh3
        Snh4
        Spro
        Ssu
        Sva
        T
        XI
        Xaa
        Xac
        Xc
        Xc4
        Xch
        Xfa
        Xh2
        Xli
        Xpr
        Xpro
        Xsu
        alphat
        p
        pH
        p_rgh

    Reconstructing volVectorFields

        U

    Reconstructing surfaceScalarFields

        phi

Reconstructing point fields

No point fields

No lagrangian fields

No FA fields

Time = 930

Reconstructing FV fields

    Reconstructing volScalarField::Internals

        dGch4
        dGco2
        dGh2

    Reconstructing volScalarFields

        Gch4
        Gco2
        Gh2
        SI
        SIC
        SIN
        Saa
        Sac
        Sbu
        Sch4
        Sco2
        Sfa
        Sh2
        Snh3
        Snh4
        Spro
        Ssu
        Sva
        T
        XI
        Xaa
        Xac
        Xc
        Xc4
        Xch
        Xfa
        Xh2
        Xli
        Xpr
        Xpro
        Xsu
        alphat
        p
        pH
        p_rgh

    Reconstructing volVectorFields

        U

    Reconstructing surfaceScalarFields

        phi

Reconstructing point fields

No point fields

No lagrangian fields

No FA fields

Time = 940

Reconstructing FV fields

    Reconstructing volScalarField::Internals

        dGch4
        dGco2
        dGh2

    Reconstructing volScalarFields

        Gch4
        Gco2
        Gh2
        SI
        SIC
        SIN
        Saa
        Sac
        Sbu
        Sch4
        Sco2
        Sfa
        Sh2
        Snh3
        Snh4
        Spro
        Ssu
        Sva
        T
        XI
        Xaa
        Xac
        Xc
        Xc4
        Xch
        Xfa
        Xh2
        Xli
        Xpr
        Xpro
        Xsu
        alphat
        p
        pH
        p_rgh

    Reconstructing volVectorFields

        U

    Reconstructing surfaceScalarFields

        phi

Reconstructing point fields

No point fields

No lagrangian fields

No FA fields

Time = 950

Reconstructing FV fields

    Reconstructing volScalarField::Internals

        dGch4
        dGco2
        dGh2

    Reconstructing volScalarFields

        Gch4
        Gco2
        Gh2
        SI
        SIC
        SIN
        Saa
        Sac
        Sbu
        Sch4
        Sco2
        Sfa
        Sh2
        Snh3
        Snh4
        Spro
        Ssu
        Sva
        T
        XI
        Xaa
        Xac
        Xc
        Xc4
        Xch
        Xfa
        Xh2
        Xli
        Xpr
        Xpro
        Xsu
        alphat
        p
        pH
        p_rgh

    Reconstructing volVectorFields

        U

    Reconstructing surfaceScalarFields

        phi

Reconstructing point fields

No point fields

No lagrangian fields

No FA fields

Time = 960

Reconstructing FV fields

    Reconstructing volScalarField::Internals

        dGch4
        dGco2
        dGh2

    Reconstructing volScalarFields

        Gch4
        Gco2
        Gh2
        SI
        SIC
        SIN
        Saa
        Sac
        Sbu
        Sch4
        Sco2
        Sfa
        Sh2
        Snh3
        Snh4
        Spro
        Ssu
        Sva
        T
        XI
        Xaa
        Xac
        Xc
        Xc4
        Xch
        Xfa
        Xh2
        Xli
        Xpr
        Xpro
        Xsu
        alphat
        p
        pH
        p_rgh

    Reconstructing volVectorFields

        U

    Reconstructing surfaceScalarFields

        phi

Reconstructing point fields

No point fields

No lagrangian fields

No FA fields

Time = 970

Reconstructing FV fields

    Reconstructing volScalarField::Internals

        dGch4
        dGco2
        dGh2

    Reconstructing volScalarFields

        Gch4
        Gco2
        Gh2
        SI
        SIC
        SIN
        Saa
        Sac
        Sbu
        Sch4
        Sco2
        Sfa
        Sh2
        Snh3
        Snh4
        Spro
        Ssu
        Sva
        T
        XI
        Xaa
        Xac
        Xc
        Xc4
        Xch
        Xfa
        Xh2
        Xli
        Xpr
        Xpro
        Xsu
        alphat
        p
        pH
        p_rgh

    Reconstructing volVectorFields

        U

    Reconstructing surfaceScalarFields

        phi

Reconstructing point fields

No point fields

No lagrangian fields

No FA fields

Time = 980

Reconstructing FV fields

    Reconstructing volScalarField::Internals

        dGch4
        dGco2
        dGh2

    Reconstructing volScalarFields

        Gch4
        Gco2
        Gh2
        SI
        SIC
        SIN
        Saa
        Sac
        Sbu
        Sch4
        Sco2
        Sfa
        Sh2
        Snh3
        Snh4
        Spro
        Ssu
        Sva
        T
        XI
        Xaa
        Xac
        Xc
        Xc4
        Xch
        Xfa
        Xh2
        Xli
        Xpr
        Xpro
        Xsu
        alphat
        p
        pH
        p_rgh

    Reconstructing volVectorFields

        U

    Reconstructing surfaceScalarFields

        phi

Reconstructing point fields

No point fields

No lagrangian fields

No FA fields

Time = 990

Reconstructing FV fields

    Reconstructing volScalarField::Internals

        dGch4
        dGco2
        dGh2

    Reconstructing volScalarFields

        Gch4
        Gco2
        Gh2
        SI
        SIC
        SIN
        Saa
        Sac
        Sbu
        Sch4
        Sco2
        Sfa
        Sh2
        Snh3
        Snh4
        Spro
        Ssu
        Sva
        T
        XI
        Xaa
        Xac
        Xc
        Xc4
        Xch
        Xfa
        Xh2
        Xli
        Xpr
        Xpro
        Xsu
        alphat
        p
        pH
        p_rgh

    Reconstructing volVectorFields

        U

    Reconstructing surfaceScalarFields

        phi

Reconstructing point fields

No point fields

No lagrangian fields

No FA fields

Time = 1000

Reconstructing FV fields

    Reconstructing volScalarField::Internals

        dGch4
        dGco2
        dGh2

    Reconstructing volScalarFields

        Gch4
        Gco2
        Gh2
        SI
        SIC
        SIN
        Saa
        Sac
        Sbu
        Sch4
        Sco2
        Sfa
        Sh2
        Snh3
        Snh4
        Spro
        Ssu
        Sva
        T
        XI
        Xaa
        Xac
        Xc
        Xc4
        Xch
        Xfa
        Xh2
        Xli
        Xpr
        Xpro
        Xsu
        alphat
        p
        pH
        p_rgh

    Reconstructing volVectorFields

        U

    Reconstructing surfaceScalarFields

        phi

Reconstructing point fields

No point fields

No lagrangian fields

No FA fields

Time = 1010

Reconstructing FV fields

    Reconstructing volScalarField::Internals

        dGch4
        dGco2
        dGh2

    Reconstructing volScalarFields

        Gch4
        Gco2
        Gh2
        SI
        SIC
        SIN
        Saa
        Sac
        Sbu
        Sch4
        Sco2
        Sfa
        Sh2
        Snh3
        Snh4
        Spro
        Ssu
        Sva
        T
        XI
        Xaa
        Xac
        Xc
        Xc4
        Xch
        Xfa
        Xh2
        Xli
        Xpr
        Xpro
        Xsu
        alphat
        p
        pH
        p_rgh

    Reconstructing volVectorFields

        U

    Reconstructing surfaceScalarFields

        phi

Reconstructing point fields

No point fields

No lagrangian fields

No FA fields

Time = 1020

Reconstructing FV fields

    Reconstructing volScalarField::Internals

        dGch4
        dGco2
        dGh2

    Reconstructing volScalarFields

        Gch4
        Gco2
        Gh2
        SI
        SIC
        SIN
        Saa
        Sac
        Sbu
        Sch4
        Sco2
        Sfa
        Sh2
        Snh3
        Snh4
        Spro
        Ssu
        Sva
        T
        XI
        Xaa
        Xac
        Xc
        Xc4
        Xch
        Xfa
        Xh2
        Xli
        Xpr
        Xpro
        Xsu
        alphat
        p
        pH
        p_rgh

    Reconstructing volVectorFields

        U

    Reconstructing surfaceScalarFields

        phi

Reconstructing point fields

No point fields

No lagrangian fields

No FA fields

Time = 1030

Reconstructing FV fields

    Reconstructing volScalarField::Internals

        dGch4
        dGco2
        dGh2

    Reconstructing volScalarFields

        Gch4
[...]

        dGch4
        dGco2
        dGh2

    Reconstructing volScalarFields

        Gch4
        Gco2
        Gh2
        SI
        SIC
        SIN
        Saa
        Sac
        Sbu
        Sch4
        Sco2
        Sfa
        Sh2
        Snh3
        Snh4
        Spro
        Ssu
        Sva
        T
        XI
        Xaa
        Xac
        Xc
        Xc4
        Xch
        Xfa
        Xh2
        Xli
        Xpr
        Xpro
        Xsu
        alphat
        p
        pH
        p_rgh

    Reconstructing volVectorFields

        U

    Reconstructing surfaceScalarFields

        phi

Reconstructing point fields

No point fields

No lagrangian fields

No FA fields

Time = 1760

Reconstructing FV fields

    Reconstructing volScalarField::Internals

        dGch4
        dGco2
        dGh2

    Reconstructing volScalarFields

        Gch4
        Gco2
        Gh2
        SI
        SIC
        SIN
        Saa
        Sac
        Sbu
        Sch4
        Sco2
        Sfa
        Sh2
        Snh3
        Snh4
        Spro
        Ssu
        Sva
        T
        XI
        Xaa
        Xac
        Xc
        Xc4
        Xch
        Xfa
        Xh2
        Xli
        Xpr
        Xpro
        Xsu
        alphat
        p
        pH
        p_rgh

    Reconstructing volVectorFields

        U

    Reconstructing surfaceScalarFields

        phi

Reconstructing point fields

No point fields

No lagrangian fields

No FA fields

Time = 1770

Reconstructing FV fields

    Reconstructing volScalarField::Internals

        dGch4
        dGco2
        dGh2

    Reconstructing volScalarFields

        Gch4
        Gco2
        Gh2
        SI
        SIC
        SIN
        Saa
        Sac
        Sbu
        Sch4
        Sco2
        Sfa
        Sh2
        Snh3
        Snh4
        Spro
        Ssu
        Sva
        T
        XI
        Xaa
        Xac
        Xc
        Xc4
        Xch
        Xfa
        Xh2
        Xli
        Xpr
        Xpro
        Xsu
        alphat
        p
        pH
        p_rgh

    Reconstructing volVectorFields

        U

    Reconstructing surfaceScalarFields

        phi

Reconstructing point fields

No point fields

No lagrangian fields

No FA fields

Time = 1780

Reconstructing FV fields

    Reconstructing volScalarField::Internals

        dGch4
        dGco2
        dGh2

    Reconstructing volScalarFields

        Gch4
        Gco2
        Gh2
        SI
        SIC
        SIN
        Saa
        Sac
        Sbu
        Sch4
        Sco2
        Sfa
        Sh2
        Snh3
        Snh4
        Spro
        Ssu
        Sva
        T
        XI
        Xaa
        Xac
        Xc
        Xc4
        Xch
        Xfa
        Xh2
        Xli
        Xpr
        Xpro
        Xsu
        alphat
        p
        pH
        p_rgh

    Reconstructing volVectorFields

        U

    Reconstructing surfaceScalarFields

        phi

Reconstructing point fields

No point fields

No lagrangian fields

No FA fields

Time = 1790

Reconstructing FV fields

    Reconstructing volScalarField::Internals

        dGch4
        dGco2
        dGh2

    Reconstructing volScalarFields

        Gch4
        Gco2
        Gh2
        SI
        SIC
        SIN
        Saa
        Sac
        Sbu
        Sch4
        Sco2
        Sfa
        Sh2
        Snh3
        Snh4
        Spro
        Ssu
        Sva
        T
        XI
        Xaa
        Xac
        Xc
        Xc4
        Xch
        Xfa
        Xh2
        Xli
        Xpr
        Xpro
        Xsu
        alphat
        p
        pH
        p_rgh

    Reconstructing volVectorFields

        U

    Reconstructing surfaceScalarFields

        phi

Reconstructing point fields

No point fields

No lagrangian fields

No FA fields

Time = 1800

Reconstructing FV fields

    Reconstructing volScalarField::Internals

        dGch4
        dGco2
        dGh2

    Reconstructing volScalarFields

        Gch4
        Gco2
        Gh2
        SI
        SIC
        SIN
        Saa
        Sac
        Sbu
        Sch4
        Sco2
        Sfa
        Sh2
        Snh3
        Snh4
        Spro
        Ssu
        Sva
        T
        XI
        Xaa
        Xac
        Xc
        Xc4
        Xch
        Xfa
        Xh2
        Xli
        Xpr
        Xpro
        Xsu
        alphat
        p
        pH
        p_rgh

    Reconstructing volVectorFields

        U

    Reconstructing surfaceScalarFields

        phi

Reconstructing point fields

No point fields

No lagrangian fields

No FA fields

Time = 1810

Reconstructing FV fields

    Reconstructing volScalarField::Internals

        dGch4
        dGco2
        dGh2

    Reconstructing volScalarFields

        Gch4
        Gco2
        Gh2
        SI
        SIC
        SIN
        Saa
        Sac
        Sbu
        Sch4
        Sco2
        Sfa
        Sh2
        Snh3
        Snh4
        Spro
        Ssu
        Sva
        T
        XI
        Xaa
        Xac
        Xc
        Xc4
        Xch
        Xfa
        Xh2
        Xli
        Xpr
        Xpro
        Xsu
        alphat
        p
        pH
        p_rgh

    Reconstructing volVectorFields

        U

    Reconstructing surfaceScalarFields

        phi

Reconstructing point fields

No point fields

No lagrangian fields

No FA fields

Time = 1820

Reconstructing FV fields

    Reconstructing volScalarField::Internals

        dGch4
        dGco2
        dGh2

    Reconstructing volScalarFields

        Gch4
        Gco2
        Gh2
        SI
        SIC
        SIN
        Saa
        Sac
        Sbu
        Sch4
        Sco2
        Sfa
        Sh2
        Snh3
        Snh4
        Spro
        Ssu
        Sva
        T
        XI
        Xaa
        Xac
        Xc
        Xc4
        Xch
        Xfa
        Xh2
        Xli
        Xpr
        Xpro
        Xsu
        alphat
        p
        pH
        p_rgh

    Reconstructing volVectorFields

        U

    Reconstructing surfaceScalarFields

        phi

Reconstructing point fields

No point fields

No lagrangian fields

No FA fields

Time = 1830

Reconstructing FV fields

    Reconstructing volScalarField::Internals

        dGch4
        dGco2
        dGh2

    Reconstructing volScalarFields

        Gch4
        Gco2
        Gh2
        SI
        SIC
        SIN
        Saa
        Sac
        Sbu
        Sch4
        Sco2
        Sfa
        Sh2
        Snh3
        Snh4
        Spro
        Ssu
        Sva
        T
        XI
        Xaa
        Xac
        Xc
        Xc4
        Xch
        Xfa
        Xh2
        Xli
        Xpr
        Xpro
        Xsu
        alphat
        p
        pH
        p_rgh

    Reconstructing volVectorFields

        U

    Reconstructing surfaceScalarFields

        phi

Reconstructing point fields

No point fields

No lagrangian fields

No FA fields

Time = 1840

Reconstructing FV fields

    Reconstructing volScalarField::Internals

        dGch4
        dGco2
        dGh2

    Reconstructing volScalarFields

        Gch4
        Gco2
        Gh2
        SI
        SIC
        SIN
        Saa
        Sac
        Sbu
        Sch4
        Sco2
        Sfa
        Sh2
        Snh3
        Snh4
        Spro
        Ssu
        Sva
        T
        XI
        Xaa
        Xac
        Xc
        Xc4
        Xch
        Xfa
        Xh2
        Xli
        Xpr
        Xpro
        Xsu
        alphat
        p
        pH
        p_rgh

    Reconstructing volVectorFields

        U

    Reconstructing surfaceScalarFields

        phi

Reconstructing point fields

No point fields

No lagrangian fields

No FA fields

Time = 1850

Reconstructing FV fields

    Reconstructing volScalarField::Internals

        dGch4
        dGco2
        dGh2

    Reconstructing volScalarFields

        Gch4
        Gco2
        Gh2
        SI
        SIC
        SIN
        Saa
        Sac
        Sbu
        Sch4
        Sco2
        Sfa
        Sh2
        Snh3
        Snh4
        Spro
        Ssu
        Sva
        T
        XI
        Xaa
        Xac
        Xc
        Xc4
        Xch
        Xfa
        Xh2
        Xli
        Xpr
        Xpro
        Xsu
        alphat
        p
        pH
        p_rgh

    Reconstructing volVectorFields

        U

    Reconstructing surfaceScalarFields

        phi

Reconstructing point fields

No point fields

No lagrangian fields

No FA fields

Time = 1860

Reconstructing FV fields

    Reconstructing volScalarField::Internals

        dGch4
        dGco2
        dGh2

    Reconstructing volScalarFields

        Gch4
        Gco2
        Gh2
        SI
        SIC
        SIN
        Saa
        Sac
        Sbu
        Sch4
        Sco2
        Sfa
        Sh2
        Snh3
        Snh4
        Spro
        Ssu
        Sva
        T
        XI
        Xaa
        Xac
        Xc
        Xc4
        Xch
        Xfa
        Xh2
        Xli
        Xpr
        Xpro
        Xsu
        alphat
        p
        pH
        p_rgh

    Reconstructing volVectorFields

        U

    Reconstructing surfaceScalarFields

        phi

Reconstructing point fields

No point fields

No lagrangian fields

No FA fields

Time = 1870

Reconstructing FV fields

    Reconstructing volScalarField::Internals

        dGch4
        dGco2
        dGh2

    Reconstructing volScalarFields

        Gch4
        Gco2
        Gh2
        SI
        SIC
        SIN
        Saa
        Sac
        Sbu
        Sch4
        Sco2
        Sfa
        Sh2
        Snh3
        Snh4
        Spro
        Ssu
        Sva
        T
        XI
        Xaa
        Xac
        Xc
        Xc4
        Xch
        Xfa
        Xh2
        Xli
        Xpr
        Xpro
        Xsu
        alphat
        p
        pH
        p_rgh

    Reconstructing volVectorFields

        U

    Reconstructing surfaceScalarFields

        phi

Reconstructing point fields

No point fields

No lagrangian fields

No FA fields

Time = 1880

Reconstructing FV fields

    Reconstructing volScalarField::Internals

        dGch4
        dGco2
        dGh2

    Reconstructing volScalarFields

        Gch4
        Gco2
        Gh2
        SI
        SIC
        SIN
        Saa
        Sac
        Sbu
        Sch4
        Sco2
        Sfa
        Sh2
        Snh3
        Snh4
        Spro
        Ssu
        Sva
        T
        XI
        Xaa
        Xac
        Xc
        Xc4
        Xch
        Xfa
        Xh2
        Xli
        Xpr
        Xpro
        Xsu
        alphat
        p
        pH
        p_rgh

    Reconstructing volVectorFields

        U

    Reconstructing surfaceScalarFields

        phi

Reconstructing point fields

No point fields

No lagrangian fields

No FA fields

Time = 1890

Reconstructing FV fields

    Reconstructing volScalarField::Internals

        dGch4
        dGco2
        dGh2

    Reconstructing volScalarFields

        Gch4
        Gco2
        Gh2
        SI
        SIC
        SIN
        Saa
        Sac
        Sbu
        Sch4
        Sco2
        Sfa
        Sh2
        Snh3
        Snh4
        Spro
        Ssu
        Sva
        T
        XI
        Xaa
        Xac
        Xc
        Xc4
        Xch
        Xfa
        Xh2
        Xli
        Xpr
        Xpro
        Xsu
        alphat
        p
        pH
        p_rgh

    Reconstructing volVectorFields

        U

    Reconstructing surfaceScalarFields

        phi

Reconstructing point fields

No point fields

No lagrangian fields

No FA fields

Time = 1900

Reconstructing FV fields

    Reconstructing volScalarField::Internals

        dGch4
        dGco2
        dGh2

    Reconstructing volScalarFields

        Gch4
        Gco2
        Gh2
        SI
        SIC
        SIN
        Saa
        Sac
        Sbu
        Sch4
        Sco2
        Sfa
        Sh2
        Snh3
        Snh4
        Spro
        Ssu
        Sva
        T
        XI
        Xaa
        Xac
        Xc
        Xc4
        Xch
        Xfa
        Xh2
        Xli
        Xpr
        Xpro
        Xsu
        alphat
        p
        pH
        p_rgh

    Reconstructing volVectorFields

        U

    Reconstructing surfaceScalarFields

        phi

Reconstructing point fields

No point fields

No lagrangian fields

No FA fields

Time = 1910

Reconstructing FV fields

    Reconstructing volScalarField::Internals

        dGch4
        dGco2
        dGh2

    Reconstructing volScalarFields

        Gch4
        Gco2
        Gh2
        SI
        SIC
        SIN
        Saa
        Sac
        Sbu
        Sch4
        Sco2
        Sfa
        Sh2
        Snh3
        Snh4
        Spro
        Ssu
        Sva
        T
        XI
        Xaa
        Xac
        Xc
        Xc4
        Xch
        Xfa
        Xh2
        Xli
        Xpr
        Xpro
        Xsu
        alphat
        p
        pH
        p_rgh

    Reconstructing volVectorFields

        U

    Reconstructing surfaceScalarFields

        phi

Reconstructing point fields

No point fields

No lagrangian fields

No FA fields

Time = 1920

Reconstructing FV fields

    Reconstructing volScalarField::Internals

        dGch4
        dGco2
        dGh2

    Reconstructing volScalarFields

        Gch4
        Gco2
        Gh2
        SI
        SIC
        SIN
        Saa
        Sac
        Sbu
        Sch4
        Sco2
        Sfa
        Sh2
        Snh3
        Snh4
        Spro
        Ssu
        Sva
        T
        XI
        Xaa
        Xac
        Xc
        Xc4
        Xch
        Xfa
        Xh2
        Xli
        Xpr
        Xpro
        Xsu
        alphat
        p
        pH
        p_rgh

    Reconstructing volVectorFields

        U

    Reconstructing surfaceScalarFields

        phi

Reconstructing point fields

No point fields

No lagrangian fields

No FA fields

Time = 1930

Reconstructing FV fields

    Reconstructing volScalarField::Internals

        dGch4
        dGco2
        dGh2

    Reconstructing volScalarFields

        Gch4
        Gco2
        Gh2
        SI
        SIC
        SIN
        Saa
        Sac
        Sbu
        Sch4
        Sco2
        Sfa
        Sh2
        Snh3
        Snh4
        Spro
        Ssu
        Sva
        T
        XI
        Xaa
        Xac
        Xc
        Xc4
        Xch
        Xfa
        Xh2
        Xli
        Xpr
        Xpro
        Xsu
        alphat
        p
        pH
        p_rgh

    Reconstructing volVectorFields

        U

    Reconstructing surfaceScalarFields

        phi

Reconstructing point fields

No point fields

No lagrangian fields

No FA fields

Time = 1940

Reconstructing FV fields

    Reconstructing volScalarField::Internals

        dGch4
        dGco2
        dGh2

    Reconstructing volScalarFields

        Gch4
        Gco2
        Gh2
        SI
        SIC
        SIN
        Saa
        Sac
        Sbu
        Sch4
        Sco2
        Sfa
        Sh2
        Snh3
        Snh4
        Spro
        Ssu
        Sva
        T
        XI
        Xaa
        Xac
        Xc
        Xc4
        Xch
        Xfa
        Xh2
        Xli
        Xpr
        Xpro
        Xsu
        alphat
        p
        pH
        p_rgh

    Reconstructing volVectorFields

        U

    Reconstructing surfaceScalarFields

        phi

Reconstructing point fields

No point fields

No lagrangian fields

No FA fields

Time = 1950

Reconstructing FV fields

    Reconstructing volScalarField::Internals

        dGch4
        dGco2
        dGh2

    Reconstructing volScalarFields

        Gch4
        Gco2
        Gh2
        SI
        SIC
        SIN
        Saa
        Sac
        Sbu
        Sch4
        Sco2
        Sfa
        Sh2
        Snh3
        Snh4
        Spro
        Ssu
        Sva
        T
        XI
        Xaa
        Xac
        Xc
        Xc4
        Xch
        Xfa
        Xh2
        Xli
        Xpr
        Xpro
        Xsu
        alphat
        p
        pH
        p_rgh

    Reconstructing volVectorFields

        U

    Reconstructing surfaceScalarFields

        phi

Reconstructing point fields

No point fields

No lagrangian fields

No FA fields

Time = 1960

Reconstructing FV fields

    Reconstructing volScalarField::Internals

        dGch4
        dGco2
        dGh2

    Reconstructing volScalarFields

        Gch4
        Gco2
        Gh2
        SI
        SIC
        SIN
        Saa
        Sac
        Sbu
        Sch4
        Sco2
        Sfa
        Sh2
        Snh3
        Snh4
        Spro
        Ssu
        Sva
        T
        XI
        Xaa
        Xac
        Xc
        Xc4
        Xch
        Xfa
        Xh2
        Xli
        Xpr
        Xpro
        Xsu
        alphat
        p
        pH
        p_rgh

    Reconstructing volVectorFields

        U

    Reconstructing surfaceScalarFields

        phi

Reconstructing point fields

No point fields

No lagrangian fields

No FA fields

Time = 1970

Reconstructing FV fields

    Reconstructing volScalarField::Internals

        dGch4
        dGco2
        dGh2

    Reconstructing volScalarFields

        Gch4
        Gco2
        Gh2
        SI
        SIC
        SIN
        Saa
        Sac
        Sbu
        Sch4
        Sco2
        Sfa
        Sh2
        Snh3
        Snh4
        Spro
        Ssu
        Sva
        T
        XI
        Xaa
        Xac
        Xc
        Xc4
        Xch
        Xfa
        Xh2
        Xli
        Xpr
        Xpro
        Xsu
        alphat
        p
        pH
        p_rgh

    Reconstructing volVectorFields

        U

    Reconstructing surfaceScalarFields

        phi

Reconstructing point fields

No point fields

No lagrangian fields

No FA fields

Time = 1980

Reconstructing FV fields

    Reconstructing volScalarField::Internals

        dGch4
        dGco2
        dGh2

    Reconstructing volScalarFields

        Gch4
        Gco2
        Gh2
        SI
        SIC
        SIN
        Saa
        Sac
        Sbu
        Sch4
        Sco2
        Sfa
        Sh2
        Snh3
        Snh4
        Spro
        Ssu
        Sva
        T
        XI
        Xaa
        Xac
        Xc
        Xc4
        Xch
        Xfa
        Xh2
        Xli
        Xpr
        Xpro
        Xsu
        alphat
        p
        pH
        p_rgh

    Reconstructing volVectorFields

        U

    Reconstructing surfaceScalarFields

        phi

Reconstructing point fields

No point fields

No lagrangian fields

No FA fields

Time = 1990

Reconstructing FV fields

    Reconstructing volScalarField::Internals

        dGch4
        dGco2
        dGh2

    Reconstructing volScalarFields

        Gch4
        Gco2
        Gh2
        SI
        SIC
        SIN
        Saa
        Sac
        Sbu
        Sch4
        Sco2
        Sfa
        Sh2
        Snh3
        Snh4
        Spro
        Ssu
        Sva
        T
        XI
        Xaa
        Xac
        Xc
        Xc4
        Xch
        Xfa
        Xh2
        Xli
        Xpr
        Xpro
        Xsu
        alphat
        p
        pH
        p_rgh

    Reconstructing volVectorFields

        U

    Reconstructing surfaceScalarFields

        phi

Reconstructing point fields

No point fields

No lagrangian fields

No FA fields

Time = 2000

Reconstructing FV fields

    Reconstructing volScalarField::Internals

        dGch4
        dGco2
        dGh2

    Reconstructing volScalarFields

        Gch4
        Gco2
        Gh2
        SI
        SIC
        SIN
        Saa
        Sac
        Sbu
        Sch4
        Sco2
        Sfa
        Sh2
        Snh3
        Snh4
        Spro
        Ssu
        Sva
        T
        XI
        Xaa
        Xac
        Xc
        Xc4
        Xch
        Xfa
        Xh2
        Xli
        Xpr
        Xpro
        Xsu
        alphat
        p
        pH
        p_rgh

    Reconstructing volVectorFields

        U

    Reconstructing surfaceScalarFields

        phi

Reconstructing point fields

No point fields

No lagrangian fields

No FA fields


End

