/*---------------------------------------------------------------------------*\
| =========                 |                                                 |
| \\      /  F ield         | OpenFOAM: The Open Source CFD Toolbox           |
|  \\    /   O peration     | Version:  2212                                  |
|   \\  /    A nd           | Website:  www.openfoam.com                      |
|    \\/     M anipulation  |                                                 |
\*---------------------------------------------------------------------------*/
Build  : _c9081d5d-20230220 OPENFOAM=2212 patch=230110 version=v2212
Arch   : "LSB;label=64;scalar=64"
Exec   : interCondensatingEvaporatingFoam -parallel
Date   : Feb 09 2025
Time   : 12:36:08
Host   : DESKTOP-E2PB5N9
PID    : 7327
I/O    : uncollated
Case   : /home/noreff/works/OpenFOAM_projects/v2206/multiphase_solverComparisons/interCondensateEvaporateFoam
nProcs : 6
Hosts  :
(
    (DESKTOP-E2PB5N9 6)
)
Pstream initialized with:
    floatTransfer      : 0
    nProcsSimpleSum    : 0
    commsType          : nonBlocking
    polling iterations : 0
trapFpe: Floating point exception trapping enabled (FOAM_SIGFPE).
fileModificationChecking : Monitoring run-time modified files using timeStampMaster (fileModificationSkew 5, maxFileModificationPolls 20)
allowSystemOperations : Allowing user-supplied system call operations

// * * * * * * * * * * * * * * * * * * * * * * * * * * * * * * * * * * * * * //
Create time

Create mesh for time = 0


PIMPLE: Operating solver in PISO mode

Reading field p_rgh

Reading field U

Reading/calculating face flux field phi

Selecting incompressible transport model Newtonian
Selecting incompressible transport model Newtonian
Creating temperaturePhaseChangeTwoPhaseMixture

Selecting phaseChange model constant
Selecting surfaceTensionModel constant
Selecting turbulence model type laminar
Selecting laminar stress model Stokes

Reading g

Reading hRef
Calculating field g.h

No MRF models present

No finite volume options present
GAMG:  Solving for pcorr, Initial residual = 0, Final residual = 0, No Iterations 0
time step continuity errors : sum local = 0, global = 0, cumulative = 0
Courant Number mean: 0 max: 0

Starting time loop

Courant Number mean: 0 max: 0
Interface Courant Number mean: 0 max: 0
deltaT = 1.20048e-05
Time = 1.20048e-05

PIMPLE: iteration 1
smoothSolver:  Solving for alpha.fluid, Initial residual = 1.7755e-23, Final residual = 1.7755e-23, No Iterations 0
Phase-1 volume fraction = 0.745483  Min(alpha.fluid) = 0  Max(alpha.fluid) = 1
MULES: Correcting alpha.fluid
MULES: Correcting alpha.fluid
Liquid phase volume fraction = 0.745483  Min(alpha.fluid) = 0  Max(alpha.fluid) = 1
smoothSolver:  Solving for alpha.fluid, Initial residual = 1.7755e-23, Final residual = 1.7755e-23, No Iterations 0
Phase-1 volume fraction = 0.745483  Min(alpha.fluid) = 0  Max(alpha.fluid) = 1
MULES: Correcting alpha.fluid
MULES: Correcting alpha.fluid
Liquid phase volume fraction = 0.745483  Min(alpha.fluid) = 0  Max(alpha.fluid) = 1
smoothSolver:  Solving for T, Initial residual = 0.000638824, Final residual = 0.000564492, No Iterations 1000
min/max(T) = 298.15, 298.15
GAMG:  Solving for p_rgh, Initial residual = 1, Final residual = 0.00527401, No Iterations 1
GAMGPCG:  Solving for p_rgh, Initial residual = 0.00254474, Final residual = 5.39458e-10, No Iterations 12
ExecutionTime = 0.13 s  ClockTime = 0 s

Courant Number mean: 8.08504e-06 max: 0.00489379
Interface Courant Number mean: 0 max: 0
deltaT = 1.44127e-05
Time = 2.64175e-05

PIMPLE: iteration 1
smoothSolver:  Solving for alpha.fluid, Initial residual = 2.15972e-06, Final residual = 1.54159e-12, No Iterations 1
Phase-1 volume fraction = 0.745483  Min(alpha.fluid) = 0  Max(alpha.fluid) = 1
MULES: Correcting alpha.fluid
MULES: Correcting alpha.fluid
Liquid phase volume fraction = 0.745483  Min(alpha.fluid) = -6.31743e-08  Max(alpha.fluid) = 1
smoothSolver:  Solving for alpha.fluid, Initial residual = 2.1563e-06, Final residual = 1.53849e-12, No Iterations 1
Phase-1 volume fraction = 0.745483  Min(alpha.fluid) = -6.89096e-13  Max(alpha.fluid) = 1
MULES: Correcting alpha.fluid
MULES: Correcting alpha.fluid
Liquid phase volume fraction = 0.745483  Min(alpha.fluid) = -6.34808e-08  Max(alpha.fluid) = 1
smoothSolver:  Solving for T, Initial residual = 0.00055534, Final residual = 0.000492072, No Iterations 1000
min/max(T) = 298.15, 298.15
GAMG:  Solving for p_rgh, Initial residual = 0.000537358, Final residual = 2.48692e-06, No Iterations 2
GAMGPCG:  Solving for p_rgh, Initial residual = 3.80019e-06, Final residual = 4.4029e-10, No Iterations 5
ExecutionTime = 0.24 s  ClockTime = 0 s

Courant Number mean: 1.32872e-05 max: 0.00778133
Interface Courant Number mean: 0 max: 0
deltaT = 1.72852e-05
Time = 4.37027e-05

PIMPLE: iteration 1
smoothSolver:  Solving for alpha.fluid, Initial residual = 3.30655e-06, Final residual = 4.84025e-12, No Iterations 1
Phase-1 volume fraction = 0.745483  Min(alpha.fluid) = -1.98133e-12  Max(alpha.fluid) = 1
MULES: Correcting alpha.fluid
MULES: Correcting alpha.fluid
Liquid phase volume fraction = 0.745483  Min(alpha.fluid) = -1.38107e-07  Max(alpha.fluid) = 1
smoothSolver:  Solving for alpha.fluid, Initial residual = 3.29853e-06, Final residual = 4.82492e-12, No Iterations 1
Phase-1 volume fraction = 0.745483  Min(alpha.fluid) = -7.36693e-12  Max(alpha.fluid) = 1
MULES: Correcting alpha.fluid
MULES: Correcting alpha.fluid
Liquid phase volume fraction = 0.745483  Min(alpha.fluid) = -1.3803e-07  Max(alpha.fluid) = 1
smoothSolver:  Solving for T, Initial residual = 0.0007173, Final residual = 0.000496238, No Iterations 1000
min/max(T) = 298.15, 298.15
GAMG:  Solving for p_rgh, Initial residual = 0.000181442, Final residual = 1.32474e-06, No Iterations 2
GAMGPCG:  Solving for p_rgh, Initial residual = 2.75975e-06, Final residual = 5.2222e-10, No Iterations 4
ExecutionTime = 0.34 s  ClockTime = 0 s

Courant Number mean: 1.73658e-05 max: 0.00972151
Interface Courant Number mean: 2.29241e-06 max: 0.00972151
deltaT = 2.07423e-05
Time = 6.4445e-05

PIMPLE: iteration 1
smoothSolver:  Solving for alpha.fluid, Initial residual = 4.19754e-06, Final residual = 9.01813e-12, No Iterations 1
Phase-1 volume fraction = 0.745483  Min(alpha.fluid) = -1.46296e-11  Max(alpha.fluid) = 1
MULES: Correcting alpha.fluid
MULES: Correcting alpha.fluid
Liquid phase volume fraction = 0.745483  Min(alpha.fluid) = -2.25734e-07  Max(alpha.fluid) = 1
smoothSolver:  Solving for alpha.fluid, Initial residual = 4.18533e-06, Final residual = 8.98355e-12, No Iterations 1
Phase-1 volume fraction = 0.745483  Min(alpha.fluid) = -3.81593e-11  Max(alpha.fluid) = 1
MULES: Correcting alpha.fluid
MULES: Correcting alpha.fluid
Liquid phase volume fraction = 0.745483  Min(alpha.fluid) = -2.25733e-07  Max(alpha.fluid) = 1
smoothSolver:  Solving for T, Initial residual = 0.000603539, Final residual = 0.000459961, No Iterations 1000
min/max(T) = 298.15, 298.15
GAMG:  Solving for p_rgh, Initial residual = 0.000105932, Final residual = 3.41536e-07, No Iterations 2
GAMGPCG:  Solving for p_rgh, Initial residual = 1.84946e-06, Final residual = 2.58427e-10, No Iterations 5
ExecutionTime = 0.44 s  ClockTime = 0 s

Courant Number mean: 2.15478e-05 max: 0.0115878
Interface Courant Number mean: 4.93725e-06 max: 0.0115878
deltaT = 2.49011e-05
Time = 8.93462e-05

PIMPLE: iteration 1
smoothSolver:  Solving for alpha.fluid, Initial residual = 5.16305e-06, Final residual = 1.52819e-11, No Iterations 1
Phase-1 volume fraction = 0.745483  Min(alpha.fluid) = -6.72489e-11  Max(alpha.fluid) = 1
MULES: Correcting alpha.fluid
MULES: Correcting alpha.fluid
Liquid phase volume fraction = 0.745483  Min(alpha.fluid) = -3.90967e-07  Max(alpha.fluid) = 1
smoothSolver:  Solving for alpha.fluid, Initial residual = 5.14585e-06, Final residual = 1.52139e-11, No Iterations 1
Phase-1 volume fraction = 0.745483  Min(alpha.fluid) = -1.44403e-10  Max(alpha.fluid) = 1
MULES: Correcting alpha.fluid
MULES: Correcting alpha.fluid
Liquid phase volume fraction = 0.745483  Min(alpha.fluid) = -3.90748e-07  Max(alpha.fluid) = 1
smoothSolver:  Solving for T, Initial residual = 0.000590225, Final residual = 0.000497061, No Iterations 1000
min/max(T) = 298.15, 298.15
GAMG:  Solving for p_rgh, Initial residual = 0.000107687, Final residual = 7.71065e-07, No Iterations 1
GAMGPCG:  Solving for p_rgh, Initial residual = 2.0532e-06, Final residual = 6.65907e-10, No Iterations 4
ExecutionTime = 0.55 s  ClockTime = 0 s

Courant Number mean: 2.68139e-05 max: 0.0138472
Interface Courant Number mean: 6.73457e-06 max: 0.0138472
deltaT = 2.98514e-05
Time = 0.000119198

PIMPLE: iteration 1
smoothSolver:  Solving for alpha.fluid, Initial residual = 6.30887e-06, Final residual = 2.56102e-11, No Iterations 1
Phase-1 volume fraction = 0.745483  Min(alpha.fluid) = -1.91952e-10  Max(alpha.fluid) = 1
MULES: Correcting alpha.fluid
MULES: Correcting alpha.fluid
Liquid phase volume fraction = 0.745483  Min(alpha.fluid) = -1.79962e-07  Max(alpha.fluid) = 1
smoothSolver:  Solving for alpha.fluid, Initial residual = 6.28495e-06, Final residual = 2.54781e-11, No Iterations 1
Phase-1 volume fraction = 0.745483  Min(alpha.fluid) = -1.92587e-10  Max(alpha.fluid) = 1
MULES: Correcting alpha.fluid
MULES: Correcting alpha.fluid
Liquid phase volume fraction = 0.745483  Min(alpha.fluid) = -2.10538e-07  Max(alpha.fluid) = 1
smoothSolver:  Solving for T, Initial residual = 0.000706922, Final residual = 0.00053507, No Iterations 1000
min/max(T) = 298.15, 298.15
GAMG:  Solving for p_rgh, Initial residual = 0.000129527, Final residual = 1.19106e-06, No Iterations 1
GAMGPCG:  Solving for p_rgh, Initial residual = 2.38278e-06, Final residual = 8.62075e-11, No Iterations 5
ExecutionTime = 0.65 s  ClockTime = 0 s

Courant Number mean: 3.36182e-05 max: 0.0167052
Interface Courant Number mean: 8.0408e-06 max: 0.0167052
deltaT = 3.58e-05
Time = 0.000154998

PIMPLE: iteration 1
smoothSolver:  Solving for alpha.fluid, Initial residual = 7.72923e-06, Final residual = 4.38845e-11, No Iterations 1
Phase-1 volume fraction = 0.745483  Min(alpha.fluid) = -1.94083e-10  Max(alpha.fluid) = 1
MULES: Correcting alpha.fluid
MULES: Correcting alpha.fluid
Liquid phase volume fraction = 0.745483  Min(alpha.fluid) = -3.78996e-07  Max(alpha.fluid) = 1
smoothSolver:  Solving for alpha.fluid, Initial residual = 7.69584e-06, Final residual = 4.36208e-11, No Iterations 1
Phase-1 volume fraction = 0.745483  Min(alpha.fluid) = -1.02842e-11  Max(alpha.fluid) = 1
MULES: Correcting alpha.fluid
MULES: Correcting alpha.fluid
Liquid phase volume fraction = 0.745483  Min(alpha.fluid) = -4.34693e-07  Max(alpha.fluid) = 1
smoothSolver:  Solving for T, Initial residual = 0.000702091, Final residual = 0.00054268, No Iterations 1000
min/max(T) = 298.15, 298.15
GAMG:  Solving for p_rgh, Initial residual = 0.000151933, Final residual = 1.23043e-06, No Iterations 1
GAMGPCG:  Solving for p_rgh, Initial residual = 2.36283e-06, Final residual = 2.12338e-10, No Iterations 5
ExecutionTime = 0.75 s  ClockTime = 0 s

Courant Number mean: 4.24878e-05 max: 0.0202914
Interface Courant Number mean: 1.1636e-05 max: 0.0202914
deltaT = 4.29913e-05
Time = 0.000197989

PIMPLE: iteration 1
smoothSolver:  Solving for alpha.fluid, Initial residual = 9.5045e-06, Final residual = 7.72747e-11, No Iterations 1
Phase-1 volume fraction = 0.745483  Min(alpha.fluid) = -1.65472e-11  Max(alpha.fluid) = 1
MULES: Correcting alpha.fluid
MULES: Correcting alpha.fluid
Liquid phase volume fraction = 0.745483  Min(alpha.fluid) = -7.7777e-07  Max(alpha.fluid) = 1
smoothSolver:  Solving for alpha.fluid, Initial residual = 9.45758e-06, Final residual = 7.67342e-11, No Iterations 1
Phase-1 volume fraction = 0.745483  Min(alpha.fluid) = -2.91705e-11  Max(alpha.fluid) = 1
MULES: Correcting alpha.fluid
MULES: Correcting alpha.fluid
Liquid phase volume fraction = 0.745483  Min(alpha.fluid) = -8.81346e-07  Max(alpha.fluid) = 1
smoothSolver:  Solving for T, Initial residual = 0.000735762, Final residual = 0.00055505, No Iterations 1000
min/max(T) = 298.15, 298.15
GAMG:  Solving for p_rgh, Initial residual = 0.000174633, Final residual = 1.15327e-06, No Iterations 1
GAMGPCG:  Solving for p_rgh, Initial residual = 2.2724e-06, Final residual = 4.95679e-10, No Iterations 5
ExecutionTime = 0.86 s  ClockTime = 0 s

Courant Number mean: 5.39836e-05 max: 0.0247813
Interface Courant Number mean: 1.59629e-05 max: 0.0247813
deltaT = 5.15895e-05
Time = 0.000249578

PIMPLE: iteration 1
smoothSolver:  Solving for alpha.fluid, Initial residual = 1.16981e-05, Final residual = 1.38923e-10, No Iterations 1
Phase-1 volume fraction = 0.745483  Min(alpha.fluid) = -4.03749e-11  Max(alpha.fluid) = 1
MULES: Correcting alpha.fluid
MULES: Correcting alpha.fluid
Liquid phase volume fraction = 0.745483  Min(alpha.fluid) = -1.57445e-06  Max(alpha.fluid) = 1
smoothSolver:  Solving for alpha.fluid, Initial residual = 1.1632e-05, Final residual = 1.37796e-10, No Iterations 1
Phase-1 volume fraction = 0.745483  Min(alpha.fluid) = -7.44869e-11  Max(alpha.fluid) = 1
MULES: Correcting alpha.fluid
MULES: Correcting alpha.fluid
Liquid phase volume fraction = 0.745483  Min(alpha.fluid) = -1.76852e-06  Max(alpha.fluid) = 1
smoothSolver:  Solving for T, Initial residual = 0.000697825, Final residual = 0.000531836, No Iterations 1000
min/max(T) = 298.15, 298.15
GAMG:  Solving for p_rgh, Initial residual = 0.000206156, Final residual = 1.09637e-06, No Iterations 1
GAMGPCG:  Solving for p_rgh, Initial residual = 2.18997e-06, Final residual = 6.02507e-10, No Iterations 5
ExecutionTime = 0.96 s  ClockTime = 1 s

Courant Number mean: 6.88008e-05 max: 0.0302949
Interface Courant Number mean: 2.21738e-05 max: 0.0302949
deltaT = 6.17115e-05
Time = 0.00031129

PIMPLE: iteration 1
smoothSolver:  Solving for alpha.fluid, Initial residual = 1.4322e-05, Final residual = 2.50882e-10, No Iterations 1
Phase-1 volume fraction = 0.745483  Min(alpha.fluid) = -9.78379e-11  Max(alpha.fluid) = 1
MULES: Correcting alpha.fluid
MULES: Correcting alpha.fluid
Liquid phase volume fraction = 0.745483  Min(alpha.fluid) = -3.17428e-06  Max(alpha.fluid) = 1
smoothSolver:  Solving for alpha.fluid, Initial residual = 1.42293e-05, Final residual = 2.48539e-10, No Iterations 1
Phase-1 volume fraction = 0.745483  Min(alpha.fluid) = -1.52209e-10  Max(alpha.fluid) = 1
MULES: Correcting alpha.fluid
MULES: Correcting alpha.fluid
Liquid phase volume fraction = 0.745483  Min(alpha.fluid) = -3.53704e-06  Max(alpha.fluid) = 1
smoothSolver:  Solving for T, Initial residual = 0.000697843, Final residual = 0.000576775, No Iterations 1000
min/max(T) = 298.15, 298.15
GAMG:  Solving for p_rgh, Initial residual = 0.000240434, Final residual = 1.13778e-06, No Iterations 1
GAMGPCG:  Solving for p_rgh, Initial residual = 2.18286e-06, Final residual = 6.55538e-10, No Iterations 5
ExecutionTime = 1.07 s  ClockTime = 1 s

Courant Number mean: 8.72473e-05 max: 0.0372458
Interface Courant Number mean: 2.83789e-05 max: 0.0372458
deltaT = 7.39596e-05
Time = 0.000385249

PIMPLE: iteration 1
smoothSolver:  Solving for alpha.fluid, Initial residual = 1.74681e-05, Final residual = 4.55137e-10, No Iterations 1
Phase-1 volume fraction = 0.745483  Min(alpha.fluid) = -2.33691e-10  Max(alpha.fluid) = 1
MULES: Correcting alpha.fluid
MULES: Correcting alpha.fluid
Liquid phase volume fraction = 0.745483  Min(alpha.fluid) = -6.35469e-06  Max(alpha.fluid) = 1
smoothSolver:  Solving for alpha.fluid, Initial residual = 1.73386e-05, Final residual = 4.50291e-10, No Iterations 1
Phase-1 volume fraction = 0.745483  Min(alpha.fluid) = -3.36424e-09  Max(alpha.fluid) = 1
MULES: Correcting alpha.fluid
MULES: Correcting alpha.fluid
Liquid phase volume fraction = 0.745483  Min(alpha.fluid) = -7.07329e-06  Max(alpha.fluid) = 1
smoothSolver:  Solving for T, Initial residual = 0.00077344, Final residual = 0.000595148, No Iterations 1000
min/max(T) = 298.15, 298.15
GAMG:  Solving for p_rgh, Initial residual = 0.000276722, Final residual = 1.28534e-06, No Iterations 1
GAMGPCG:  Solving for p_rgh, Initial residual = 2.20952e-06, Final residual = 5.47025e-10, No Iterations 5
ExecutionTime = 1.17 s  ClockTime = 1 s

Courant Number mean: 0.000111127 max: 0.0479965
Interface Courant Number mean: 3.48448e-05 max: 0.0479965
deltaT = 8.90255e-05
Time = 0.000474275

PIMPLE: iteration 1
smoothSolver:  Solving for alpha.fluid, Initial residual = 2.11964e-05, Final residual = 8.24013e-10, No Iterations 1
Phase-1 volume fraction = 0.745483  Min(alpha.fluid) = -6.74818e-09  Max(alpha.fluid) = 1
MULES: Correcting alpha.fluid
MULES: Correcting alpha.fluid
Liquid phase volume fraction = 0.745483  Min(alpha.fluid) = -1.27759e-05  Max(alpha.fluid) = 1
smoothSolver:  Solving for alpha.fluid, Initial residual = 2.10151e-05, Final residual = 8.14234e-10, No Iterations 1
Phase-1 volume fraction = 0.745483  Min(alpha.fluid) = -1.24234e-08  Max(alpha.fluid) = 1
MULES: Correcting alpha.fluid
MULES: Correcting alpha.fluid
Liquid phase volume fraction = 0.745483  Min(alpha.fluid) = -1.41672e-05  Max(alpha.fluid) = 1
smoothSolver:  Solving for T, Initial residual = 0.000650023, Final residual = 0.000643119, No Iterations 1000
min/max(T) = 298.15, 298.15
GAMG:  Solving for p_rgh, Initial residual = 0.000313689, Final residual = 1.55558e-06, No Iterations 1
GAMGPCG:  Solving for p_rgh, Initial residual = 2.40273e-06, Final residual = 3.31946e-10, No Iterations 5
ExecutionTime = 1.27 s  ClockTime = 1 s

Courant Number mean: 0.00014266 max: 0.0617757
Interface Courant Number mean: 4.268e-05 max: 0.0617757
deltaT = 0.000107031
Time = 0.000581306

PIMPLE: iteration 1
smoothSolver:  Solving for alpha.fluid, Initial residual = 2.53623e-05, Final residual = 1.44964e-09, No Iterations 1
Phase-1 volume fraction = 0.745483  Min(alpha.fluid) = -1.62492e-08  Max(alpha.fluid) = 1
MULES: Correcting alpha.fluid
MULES: Correcting alpha.fluid
Liquid phase volume fraction = 0.745483  Min(alpha.fluid) = -2.5272e-05  Max(alpha.fluid) = 1
smoothSolver:  Solving for alpha.fluid, Initial residual = 2.51119e-05, Final residual = 1.43181e-09, No Iterations 1
Phase-1 volume fraction = 0.745483  Min(alpha.fluid) = -2.5517e-08  Max(alpha.fluid) = 1
MULES: Correcting alpha.fluid
MULES: Correcting alpha.fluid
Liquid phase volume fraction = 0.745483  Min(alpha.fluid) = -2.79465e-05  Max(alpha.fluid) = 1.00001
smoothSolver:  Solving for T, Initial residual = 0.000692503, Final residual = 0.000490912, No Iterations 1000
min/max(T) = 298.15, 298.15
GAMG:  Solving for p_rgh, Initial residual = 0.000351188, Final residual = 1.90718e-06, No Iterations 1
GAMGPCG:  Solving for p_rgh, Initial residual = 2.79468e-06, Final residual = 1.95493e-10, No Iterations 5
ExecutionTime = 1.38 s  ClockTime = 1 s

Courant Number mean: 0.000183637 max: 0.0787587
Interface Courant Number mean: 5.197e-05 max: 0.0787587
deltaT = 0.000129023
Time = 0.000710329

PIMPLE: iteration 1
smoothSolver:  Solving for alpha.fluid, Initial residual = 2.98876e-05, Final residual = 2.57075e-09, No Iterations 1
Phase-1 volume fraction = 0.745483  Min(alpha.fluid) = -3.35455e-08  Max(alpha.fluid) = 1
MULES: Correcting alpha.fluid
MULES: Correcting alpha.fluid
Liquid phase volume fraction = 0.745483  Min(alpha.fluid) = -4.95698e-05  Max(alpha.fluid) = 1.00001
smoothSolver:  Solving for alpha.fluid, Initial residual = 2.95453e-05, Final residual = 2.54142e-09, No Iterations 1
Phase-1 volume fraction = 0.745483  Min(alpha.fluid) = -4.95878e-08  Max(alpha.fluid) = 1
MULES: Correcting alpha.fluid
MULES: Correcting alpha.fluid
Liquid phase volume fraction = 0.745483  Min(alpha.fluid) = -5.46939e-05  Max(alpha.fluid) = 1.00001
smoothSolver:  Solving for T, Initial residual = 0.000799376, Final residual = 0.000508526, No Iterations 1000
min/max(T) = 298.15, 298.15
GAMG:  Solving for p_rgh, Initial residual = 0.000393911, Final residual = 2.24172e-06, No Iterations 1
GAMGPCG:  Solving for p_rgh, Initial residual = 3.33687e-06, Final residual = 2.05679e-10, No Iterations 5
ExecutionTime = 1.48 s  ClockTime = 1 s

Courant Number mean: 0.000239563 max: 0.0996077
Interface Courant Number mean: 6.31541e-05 max: 0.0996077
deltaT = 0.000154828
Time = 0.000865157

PIMPLE: iteration 1
smoothSolver:  Solving for alpha.fluid, Initial residual = 3.4177e-05, Final residual = 4.7383e-09, No Iterations 1
Phase-1 volume fraction = 0.745483  Min(alpha.fluid) = -7.18305e-08  Max(alpha.fluid) = 1
MULES: Correcting alpha.fluid
MULES: Correcting alpha.fluid
Liquid phase volume fraction = 0.745483  Min(alpha.fluid) = -9.79731e-05  Max(alpha.fluid) = 1.00002
smoothSolver:  Solving for alpha.fluid, Initial residual = 3.37237e-05, Final residual = 4.69768e-09, No Iterations 1
Phase-1 volume fraction = 0.745483  Min(alpha.fluid) = -1.14193e-07  Max(alpha.fluid) = 1
MULES: Correcting alpha.fluid
MULES: Correcting alpha.fluid
Liquid phase volume fraction = 0.745483  Min(alpha.fluid) = -0.000107824  Max(alpha.fluid) = 1.00003
smoothSolver:  Solving for T, Initial residual = 0.000888259, Final residual = 0.000494, No Iterations 1000
min/max(T) = 298.15, 298.15
GAMG:  Solving for p_rgh, Initial residual = 0.000448747, Final residual = 2.60606e-06, No Iterations 1
GAMGPCG:  Solving for p_rgh, Initial residual = 4.11024e-06, Final residual = 2.08066e-10, No Iterations 5
ExecutionTime = 1.58 s  ClockTime = 1 s

Courant Number mean: 0.000315221 max: 0.130226
Interface Courant Number mean: 7.73875e-05 max: 0.123302
deltaT = 0.000186425
Time = 0.00105158

PIMPLE: iteration 1
smoothSolver:  Solving for alpha.fluid, Initial residual = 3.86434e-05, Final residual = 9.37989e-09, No Iterations 1
Phase-1 volume fraction = 0.745483  Min(alpha.fluid) = -1.75321e-07  Max(alpha.fluid) = 1
MULES: Correcting alpha.fluid
MULES: Correcting alpha.fluid
Liquid phase volume fraction = 0.745483  Min(alpha.fluid) = -0.000295432  Max(alpha.fluid) = 1.00005
smoothSolver:  Solving for alpha.fluid, Initial residual = 3.80635e-05, Final residual = 9.33496e-09, No Iterations 1
Phase-1 volume fraction = 0.745483  Min(alpha.fluid) = -3.28976e-07  Max(alpha.fluid) = 1
MULES: Correcting alpha.fluid
MULES: Correcting alpha.fluid
Liquid phase volume fraction = 0.745483  Min(alpha.fluid) = -0.000319164  Max(alpha.fluid) = 1.00005
smoothSolver:  Solving for T, Initial residual = 0.000670556, Final residual = 0.000543605, No Iterations 1000
min/max(T) = 298.15, 298.15
GAMG:  Solving for p_rgh, Initial residual = 0.000475857, Final residual = 2.68941e-06, No Iterations 1
GAMGPCG:  Solving for p_rgh, Initial residual = 4.76979e-06, Final residual = 1.21085e-10, No Iterations 5
ExecutionTime = 1.68 s  ClockTime = 1 s

Courant Number mean: 0.000414281 max: 0.175742
Interface Courant Number mean: 0.000106326 max: 0.171606
deltaT = 0.00022371
Time = 0.00127529

PIMPLE: iteration 1
smoothSolver:  Solving for alpha.fluid, Initial residual = 4.2971e-05, Final residual = 2.14548e-12, No Iterations 2
Phase-1 volume fraction = 0.745483  Min(alpha.fluid) = -1.41654e-09  Max(alpha.fluid) = 1
MULES: Correcting alpha.fluid
MULES: Correcting alpha.fluid
Liquid phase volume fraction = 0.745483  Min(alpha.fluid) = -0.000293093  Max(alpha.fluid) = 1.00009
smoothSolver:  Solving for alpha.fluid, Initial residual = 4.22758e-05, Final residual = 2.17749e-12, No Iterations 2
Phase-1 volume fraction = 0.745483  Min(alpha.fluid) = -4.88403e-09  Max(alpha.fluid) = 1
MULES: Correcting alpha.fluid
MULES: Correcting alpha.fluid
Liquid phase volume fraction = 0.745483  Min(alpha.fluid) = -3.29942e-05  Max(alpha.fluid) = 1.00007
smoothSolver:  Solving for T, Initial residual = 0.00106181, Final residual = 0.000617746, No Iterations 1000
min/max(T) = 298.15, 298.15
GAMG:  Solving for p_rgh, Initial residual = 0.000463178, Final residual = 2.06164e-06, No Iterations 1
GAMGPCG:  Solving for p_rgh, Initial residual = 4.4851e-06, Final residual = 2.57089e-10, No Iterations 5
ExecutionTime = 1.79 s  ClockTime = 1 s

Courant Number mean: 0.000534343 max: 0.205426
Interface Courant Number mean: 0.000142727 max: 0.199494
deltaT = 0.000264385
Time = 0.00153968

PIMPLE: iteration 1
smoothSolver:  Solving for alpha.fluid, Initial residual = 4.81685e-05, Final residual = 4.62504e-12, No Iterations 2
Phase-1 volume fraction = 0.745483  Min(alpha.fluid) = -4.86462e-09  Max(alpha.fluid) = 1
MULES: Correcting alpha.fluid
MULES: Correcting alpha.fluid
Liquid phase volume fraction = 0.745483  Min(alpha.fluid) = -6.58287e-05  Max(alpha.fluid) = 1.00005
smoothSolver:  Solving for alpha.fluid, Initial residual = 4.791e-05, Final residual = 4.57982e-12, No Iterations 2
Phase-1 volume fraction = 0.745483  Min(alpha.fluid) = -4.38834e-09  Max(alpha.fluid) = 1
MULES: Correcting alpha.fluid
MULES: Correcting alpha.fluid
Liquid phase volume fraction = 0.745483  Min(alpha.fluid) = -8.45671e-05  Max(alpha.fluid) = 1
smoothSolver:  Solving for T, Initial residual = 0.00106363, Final residual = 0.000676266, No Iterations 1000
min/max(T) = 298.15, 298.15
GAMG:  Solving for p_rgh, Initial residual = 0.000435711, Final residual = 2.19225e-06, No Iterations 1
GAMGPCG:  Solving for p_rgh, Initial residual = 4.98475e-06, Final residual = 6.87844e-10, No Iterations 5
ExecutionTime = 1.89 s  ClockTime = 1 s

Courant Number mean: 0.00066609 max: 0.228389
Interface Courant Number mean: 0.00016066 max: 0.223764
deltaT = 0.000313345
Time = 0.00185302

PIMPLE: iteration 1
smoothSolver:  Solving for alpha.fluid, Initial residual = 5.26175e-05, Final residual = 7.33184e-12, No Iterations 2
Phase-1 volume fraction = 0.745483  Min(alpha.fluid) = -1.96101e-06  Max(alpha.fluid) = 1
MULES: Correcting alpha.fluid
MULES: Correcting alpha.fluid
Liquid phase volume fraction = 0.745483  Min(alpha.fluid) = -8.3612e-05  Max(alpha.fluid) = 1
smoothSolver:  Solving for alpha.fluid, Initial residual = 5.23323e-05, Final residual = 6.87313e-12, No Iterations 2
Phase-1 volume fraction = 0.745483  Min(alpha.fluid) = -8.22983e-07  Max(alpha.fluid) = 1
MULES: Correcting alpha.fluid
MULES: Correcting alpha.fluid
Liquid phase volume fraction = 0.745483  Min(alpha.fluid) = -5.24702e-05  Max(alpha.fluid) = 1
smoothSolver:  Solving for T, Initial residual = 0.00126223, Final residual = 0.000720543, No Iterations 1000
min/max(T) = 298.15, 298.15
GAMG:  Solving for p_rgh, Initial residual = 0.000519277, Final residual = 2.28928e-06, No Iterations 1
GAMGPCG:  Solving for p_rgh, Initial residual = 5.10433e-06, Final residual = 4.4665e-10, No Iterations 5
ExecutionTime = 1.99 s  ClockTime = 2 s

Courant Number mean: 0.000827349 max: 0.239011
Interface Courant Number mean: 0.0001979 max: 0.233314
deltaT = 0.000370317
Time = 0.00222334

PIMPLE: iteration 1
smoothSolver:  Solving for alpha.fluid, Initial residual = 6.013e-05, Final residual = 1.59171e-11, No Iterations 2
Phase-1 volume fraction = 0.745483  Min(alpha.fluid) = -4.29867e-07  Max(alpha.fluid) = 1
MULES: Correcting alpha.fluid
MULES: Correcting alpha.fluid
Liquid phase volume fraction = 0.745483  Min(alpha.fluid) = -0.000257954  Max(alpha.fluid) = 1.00001
smoothSolver:  Solving for alpha.fluid, Initial residual = 5.94039e-05, Final residual = 1.42359e-11, No Iterations 2
Phase-1 volume fraction = 0.745483  Min(alpha.fluid) = -4.19843e-07  Max(alpha.fluid) = 1
MULES: Correcting alpha.fluid
MULES: Correcting alpha.fluid
Liquid phase volume fraction = 0.745483  Min(alpha.fluid) = -0.000255804  Max(alpha.fluid) = 1.00002
smoothSolver:  Solving for T, Initial residual = 0.00090903, Final residual = 0.000821993, No Iterations 1000
min/max(T) = 298.15, 298.15
GAMG:  Solving for p_rgh, Initial residual = 0.000555274, Final residual = 2.47473e-06, No Iterations 1
GAMGPCG:  Solving for p_rgh, Initial residual = 5.97365e-06, Final residual = 4.59653e-10, No Iterations 5
ExecutionTime = 2.1 s  ClockTime = 2 s

Courant Number mean: 0.0010946 max: 0.294414
Interface Courant Number mean: 0.00022658 max: 0.251724
deltaT = 0.000432037
Time = 0.00265538

PIMPLE: iteration 1
smoothSolver:  Solving for alpha.fluid, Initial residual = 6.46164e-05, Final residual = 3.9548e-11, No Iterations 2
Phase-1 volume fraction = 0.745483  Min(alpha.fluid) = 2.14103e-20  Max(alpha.fluid) = 1.00002
MULES: Correcting alpha.fluid
MULES: Correcting alpha.fluid
Liquid phase volume fraction = 0.745483  Min(alpha.fluid) = -0.000872535  Max(alpha.fluid) = 1.00003
smoothSolver:  Solving for alpha.fluid, Initial residual = 6.30523e-05, Final residual = 3.85754e-11, No Iterations 2
Phase-1 volume fraction = 0.745483  Min(alpha.fluid) = -9.06217e-18  Max(alpha.fluid) = 1.00002
MULES: Correcting alpha.fluid
MULES: Correcting alpha.fluid
Liquid phase volume fraction = 0.745483  Min(alpha.fluid) = -0.000859893  Max(alpha.fluid) = 1.00003
smoothSolver:  Solving for T, Initial residual = 0.000638584, Final residual = 0.000486441, No Iterations 1000
min/max(T) = 298.15, 298.15
GAMG:  Solving for p_rgh, Initial residual = 0.000531396, Final residual = 2.35905e-06, No Iterations 1
GAMGPCG:  Solving for p_rgh, Initial residual = 8.31909e-06, Final residual = 2.12787e-10, No Iterations 5
ExecutionTime = 2.21 s  ClockTime = 2 s

Courant Number mean: 0.00159843 max: 0.760311
Interface Courant Number mean: 0.000272251 max: 0.600437
deltaT = 0.000489642
Time = 0.00314502

PIMPLE: iteration 1
smoothSolver:  Solving for alpha.fluid, Initial residual = 5.97079e-05, Final residual = 1.39606e-10, No Iterations 2
Phase-1 volume fraction = 0.745483  Min(alpha.fluid) = -3.64744e-17  Max(alpha.fluid) = 1.00002
MULES: Correcting alpha.fluid
MULES: Correcting alpha.fluid
Liquid phase volume fraction = 0.745483  Min(alpha.fluid) = -0.00227098  Max(alpha.fluid) = 1.00006
smoothSolver:  Solving for alpha.fluid, Initial residual = 5.81032e-05, Final residual = 1.34263e-10, No Iterations 2
Phase-1 volume fraction = 0.745483  Min(alpha.fluid) = -3.64723e-17  Max(alpha.fluid) = 1.00002
MULES: Correcting alpha.fluid
MULES: Correcting alpha.fluid
Liquid phase volume fraction = 0.745483  Min(alpha.fluid) = -0.0030437  Max(alpha.fluid) = 1.00007
smoothSolver:  Solving for T, Initial residual = 0.00061534, Final residual = 0.000495511, No Iterations 1000
min/max(T) = 298.15, 298.15
GAMG:  Solving for p_rgh, Initial residual = 0.000339839, Final residual = 2.29947e-06, No Iterations 1
GAMGPCG:  Solving for p_rgh, Initial residual = 8.52195e-06, Final residual = 3.05325e-10, No Iterations 5
ExecutionTime = 2.33 s  ClockTime = 2 s

Courant Number mean: 0.00193285 max: 0.918545
Interface Courant Number mean: 0.000249129 max: 0.608756
deltaT = 0.000571248
Time = 0.00371627

PIMPLE: iteration 1
smoothSolver:  Solving for alpha.fluid, Initial residual = 5.29732e-05, Final residual = 9.00835e-11, No Iterations 2
Phase-1 volume fraction = 0.745483  Min(alpha.fluid) = -5.56141e-06  Max(alpha.fluid) = 1.00002
MULES: Correcting alpha.fluid
MULES: Correcting alpha.fluid
Liquid phase volume fraction = 0.745483  Min(alpha.fluid) = -0.002674  Max(alpha.fluid) = 1.00002
smoothSolver:  Solving for alpha.fluid, Initial residual = 5.13615e-05, Final residual = 9.36468e-11, No Iterations 2
Phase-1 volume fraction = 0.745483  Min(alpha.fluid) = -4.08412e-05  Max(alpha.fluid) = 1.00002
MULES: Correcting alpha.fluid
MULES: Correcting alpha.fluid
Liquid phase volume fraction = 0.745483  Min(alpha.fluid) = -0.00216021  Max(alpha.fluid) = 1.00002
smoothSolver:  Solving for T, Initial residual = 0.000695788, Final residual = 0.000489155, No Iterations 1000
min/max(T) = 298.15, 298.15
GAMG:  Solving for p_rgh, Initial residual = 0.000299019, Final residual = 2.50081e-06, No Iterations 1
GAMGPCG:  Solving for p_rgh, Initial residual = 6.68476e-06, Final residual = 4.82005e-10, No Iterations 5
ExecutionTime = 2.44 s  ClockTime = 2 s

Courant Number mean: 0.00254884 max: 1.13819
Interface Courant Number mean: 0.000325693 max: 0.787675
deltaT = 0.000628373
Time = 0.00434464

PIMPLE: iteration 1
smoothSolver:  Solving for alpha.fluid, Initial residual = 6.86669e-05, Final residual = 3.56643e-10, No Iterations 2
Phase-1 volume fraction = 0.745483  Min(alpha.fluid) = -9.44465e-08  Max(alpha.fluid) = 1.00001
MULES: Correcting alpha.fluid
MULES: Correcting alpha.fluid
Liquid phase volume fraction = 0.745483  Min(alpha.fluid) = -0.00116199  Max(alpha.fluid) = 1.00001
smoothSolver:  Solving for alpha.fluid, Initial residual = 6.7347e-05, Final residual = 3.34327e-10, No Iterations 2
Phase-1 volume fraction = 0.745483  Min(alpha.fluid) = -0.000694299  Max(alpha.fluid) = 1.00001
MULES: Correcting alpha.fluid
MULES: Correcting alpha.fluid
Liquid phase volume fraction = 0.745483  Min(alpha.fluid) = -0.000617814  Max(alpha.fluid) = 1.00001
smoothSolver:  Solving for T, Initial residual = 0.000782777, Final residual = 0.00047329, No Iterations 1000
min/max(T) = 298.15, 298.15
GAMG:  Solving for p_rgh, Initial residual = 0.000306951, Final residual = 8.54628e-07, No Iterations 1
GAMGPCG:  Solving for p_rgh, Initial residual = 5.64821e-06, Final residual = 4.4304e-10, No Iterations 5
ExecutionTime = 2.54 s  ClockTime = 2 s

Courant Number mean: 0.00282973 max: 0.89528
Interface Courant Number mean: 0.000311547 max: 0.572315
deltaT = 0.00070692
Time = 0.00505156

PIMPLE: iteration 1
smoothSolver:  Solving for alpha.fluid, Initial residual = 8.73689e-05, Final residual = 5.89699e-10, No Iterations 2
Phase-1 volume fraction = 0.745483  Min(alpha.fluid) = -1.85663e-06  Max(alpha.fluid) = 1.00001
MULES: Correcting alpha.fluid
MULES: Correcting alpha.fluid
Liquid phase volume fraction = 0.745483  Min(alpha.fluid) = -0.000778973  Max(alpha.fluid) = 1.00001
smoothSolver:  Solving for alpha.fluid, Initial residual = 8.43785e-05, Final residual = 4.99864e-10, No Iterations 2
Phase-1 volume fraction = 0.745483  Min(alpha.fluid) = -4.55698e-08  Max(alpha.fluid) = 1.00001
MULES: Correcting alpha.fluid
MULES: Correcting alpha.fluid
Liquid phase volume fraction = 0.745483  Min(alpha.fluid) = -0.000960433  Max(alpha.fluid) = 1.00001
smoothSolver:  Solving for T, Initial residual = 0.000690413, Final residual = 0.000494382, No Iterations 1000
min/max(T) = 298.15, 298.15
GAMG:  Solving for p_rgh, Initial residual = 0.000346563, Final residual = 2.48909e-06, No Iterations 1
GAMGPCG:  Solving for p_rgh, Initial residual = 7.41796e-06, Final residual = 5.80308e-10, No Iterations 5
ExecutionTime = 2.64 s  ClockTime = 2 s

Courant Number mean: 0.00309381 max: 0.915085
Interface Courant Number mean: 0.000368893 max: 0.473904
deltaT = 0.00082474
Time = 0.0058763

PIMPLE: iteration 1
smoothSolver:  Solving for alpha.fluid, Initial residual = 9.73247e-05, Final residual = 3.81005e-10, No Iterations 2
Phase-1 volume fraction = 0.745483  Min(alpha.fluid) = -0.000200694  Max(alpha.fluid) = 1.00001
MULES: Correcting alpha.fluid
MULES: Correcting alpha.fluid
Liquid phase volume fraction = 0.745483  Min(alpha.fluid) = -0.00118912  Max(alpha.fluid) = 1.00001
smoothSolver:  Solving for alpha.fluid, Initial residual = 9.39005e-05, Final residual = 3.37848e-10, No Iterations 2
Phase-1 volume fraction = 0.745483  Min(alpha.fluid) = -0.000157838  Max(alpha.fluid) = 1.00001
MULES: Correcting alpha.fluid
MULES: Correcting alpha.fluid
Liquid phase volume fraction = 0.745483  Min(alpha.fluid) = -0.00183197  Max(alpha.fluid) = 1.00001
smoothSolver:  Solving for T, Initial residual = 0.00073247, Final residual = 0.000535032, No Iterations 1000
min/max(T) = 298.15, 298.15
GAMG:  Solving for p_rgh, Initial residual = 0.000370882, Final residual = 1.68221e-06, No Iterations 1
GAMGPCG:  Solving for p_rgh, Initial residual = 6.61997e-06, Final residual = 1.11604e-10, No Iterations 7
ExecutionTime = 2.75 s  ClockTime = 2 s

Courant Number mean: 0.00387895 max: 0.675082
Interface Courant Number mean: 0.000421965 max: 0.541597
deltaT = 0.00103092
Time = 0.00690723

PIMPLE: iteration 1
smoothSolver:  Solving for alpha.fluid, Initial residual = 0.000111348, Final residual = 2.18896e-09, No Iterations 2
Phase-1 volume fraction = 0.745483  Min(alpha.fluid) = -0.000136321  Max(alpha.fluid) = 1.00001
MULES: Correcting alpha.fluid
MULES: Correcting alpha.fluid
Liquid phase volume fraction = 0.745483  Min(alpha.fluid) = -0.00636876  Max(alpha.fluid) = 1.00001
smoothSolver:  Solving for alpha.fluid, Initial residual = 0.000110633, Final residual = 2.24294e-09, No Iterations 2
Phase-1 volume fraction = 0.745483  Min(alpha.fluid) = -0.000117745  Max(alpha.fluid) = 1.00001
MULES: Correcting alpha.fluid
MULES: Correcting alpha.fluid
Liquid phase volume fraction = 0.745483  Min(alpha.fluid) = -0.00791068  Max(alpha.fluid) = 1.00001
smoothSolver:  Solving for T, Initial residual = 0.000802899, Final residual = 0.000584967, No Iterations 1000
min/max(T) = 298.15, 298.15
GAMG:  Solving for p_rgh, Initial residual = 0.000290396, Final residual = 1.70362e-06, No Iterations 1
GAMGPCG:  Solving for p_rgh, Initial residual = 6.14821e-06, Final residual = 5.36842e-10, No Iterations 5
ExecutionTime = 2.85 s  ClockTime = 2 s

Courant Number mean: 0.00546238 max: 0.926443
Interface Courant Number mean: 0.000560239 max: 0.512972
deltaT = 0.00103092
Time = 0.00793815

PIMPLE: iteration 1
smoothSolver:  Solving for alpha.fluid, Initial residual = 0.000112735, Final residual = 1.68974e-09, No Iterations 2
Phase-1 volume fraction = 0.745483  Min(alpha.fluid) = -9.73709e-05  Max(alpha.fluid) = 1.00001
MULES: Correcting alpha.fluid
MULES: Correcting alpha.fluid
Liquid phase volume fraction = 0.745483  Min(alpha.fluid) = -0.0062661  Max(alpha.fluid) = 1.00001
smoothSolver:  Solving for alpha.fluid, Initial residual = 0.00011227, Final residual = 1.89157e-09, No Iterations 2
Phase-1 volume fraction = 0.745483  Min(alpha.fluid) = -7.96422e-05  Max(alpha.fluid) = 1.00001
MULES: Correcting alpha.fluid
MULES: Correcting alpha.fluid
Liquid phase volume fraction = 0.745483  Min(alpha.fluid) = -0.00678189  Max(alpha.fluid) = 1.00001
smoothSolver:  Solving for T, Initial residual = 0.000776865, Final residual = 0.000592461, No Iterations 1000
min/max(T) = 298.15, 298.15
GAMG:  Solving for p_rgh, Initial residual = 0.000275532, Final residual = 1.39253e-06, No Iterations 1
GAMGPCG:  Solving for p_rgh, Initial residual = 6.08813e-06, Final residual = 1.75497e-10, No Iterations 5
ExecutionTime = 2.95 s  ClockTime = 3 s

Courant Number mean: 0.00604907 max: 1.05217
Interface Courant Number mean: 0.000635085 max: 0.916561
deltaT = 0.00103092
Time = 0.00896908

PIMPLE: iteration 1
smoothSolver:  Solving for alpha.fluid, Initial residual = 0.000118149, Final residual = 5.10028e-10, No Iterations 2
Phase-1 volume fraction = 0.745483  Min(alpha.fluid) = -0.000185904  Max(alpha.fluid) = 1.00001
MULES: Correcting alpha.fluid
MULES: Correcting alpha.fluid
Liquid phase volume fraction = 0.745483  Min(alpha.fluid) = -0.00381729  Max(alpha.fluid) = 1.00002
smoothSolver:  Solving for alpha.fluid, Initial residual = 0.000121347, Final residual = 7.51943e-10, No Iterations 2
Phase-1 volume fraction = 0.745483  Min(alpha.fluid) = -0.000142365  Max(alpha.fluid) = 1
MULES: Correcting alpha.fluid
MULES: Correcting alpha.fluid
Liquid phase volume fraction = 0.745483  Min(alpha.fluid) = -0.00315684  Max(alpha.fluid) = 1.00001
smoothSolver:  Solving for T, Initial residual = 0.000797905, Final residual = 0.000593247, No Iterations 1000
min/max(T) = 298.15, 298.15
GAMG:  Solving for p_rgh, Initial residual = 0.000311327, Final residual = 1.81217e-06, No Iterations 1
GAMGPCG:  Solving for p_rgh, Initial residual = 8.19279e-06, Final residual = 3.39581e-10, No Iterations 5
ExecutionTime = 3.05 s  ClockTime = 3 s

Courant Number mean: 0.00671554 max: 1.35427
Interface Courant Number mean: 0.000716869 max: 0.99528
deltaT = 0.00103092
Time = 0.01

PIMPLE: iteration 1
smoothSolver:  Solving for alpha.fluid, Initial residual = 0.000130651, Final residual = 3.81198e-09, No Iterations 2
Phase-1 volume fraction = 0.745483  Min(alpha.fluid) = -0.000446548  Max(alpha.fluid) = 1
MULES: Correcting alpha.fluid
MULES: Correcting alpha.fluid
Liquid phase volume fraction = 0.745483  Min(alpha.fluid) = -0.00204019  Max(alpha.fluid) = 1.00001
smoothSolver:  Solving for alpha.fluid, Initial residual = 0.000126844, Final residual = 2.68997e-09, No Iterations 2
Phase-1 volume fraction = 0.745483  Min(alpha.fluid) = -0.000429091  Max(alpha.fluid) = 1
MULES: Correcting alpha.fluid
MULES: Correcting alpha.fluid
Liquid phase volume fraction = 0.745483  Min(alpha.fluid) = -0.0014873  Max(alpha.fluid) = 1.00001
smoothSolver:  Solving for T, Initial residual = 0.000812035, Final residual = 0.000586392, No Iterations 1000
min/max(T) = 298.15, 298.15
GAMG:  Solving for p_rgh, Initial residual = 0.000519334, Final residual = 3.41941e-06, No Iterations 1
GAMGPCG:  Solving for p_rgh, Initial residual = 7.47596e-06, Final residual = 5.74195e-10, No Iterations 5
ExecutionTime = 3.16 s  ClockTime = 3 s

Courant Number mean: 0.00724314 max: 0.767732
Interface Courant Number mean: 0.000692869 max: 0.576004
deltaT = 0.00125
Time = 0.01125

PIMPLE: iteration 1
smoothSolver:  Solving for alpha.fluid, Initial residual = 0.00016951, Final residual = 8.33973e-09, No Iterations 2
Phase-1 volume fraction = 0.745483  Min(alpha.fluid) = -0.00111439  Max(alpha.fluid) = 1
MULES: Correcting alpha.fluid
MULES: Correcting alpha.fluid
Liquid phase volume fraction = 0.745483  Min(alpha.fluid) = -0.00111439  Max(alpha.fluid) = 1.00022
smoothSolver:  Solving for alpha.fluid, Initial residual = 0.000170805, Final residual = 1.07605e-10, No Iterations 3
Phase-1 volume fraction = 0.745483  Min(alpha.fluid) = -0.00083497  Max(alpha.fluid) = 1.0002
MULES: Correcting alpha.fluid
MULES: Correcting alpha.fluid
Liquid phase volume fraction = 0.745483  Min(alpha.fluid) = -0.00171358  Max(alpha.fluid) = 1.00024
smoothSolver:  Solving for T, Initial residual = 0.000920262, Final residual = 0.000608344, No Iterations 1000
min/max(T) = 298.15, 298.15
GAMG:  Solving for p_rgh, Initial residual = 0.00119878, Final residual = 1.07954e-05, No Iterations 1
GAMGPCG:  Solving for p_rgh, Initial residual = 1.49584e-05, Final residual = 4.38926e-10, No Iterations 6
ExecutionTime = 3.27 s  ClockTime = 3 s

Courant Number mean: 0.0098098 max: 0.941151
Interface Courant Number mean: 0.000939831 max: 0.739784
deltaT = 0.00145833
Time = 0.0127083

PIMPLE: iteration 1
smoothSolver:  Solving for alpha.fluid, Initial residual = 0.000288694, Final residual = 2.88397e-10, No Iterations 3
Phase-1 volume fraction = 0.745483  Min(alpha.fluid) = -0.000480869  Max(alpha.fluid) = 1.00022
MULES: Correcting alpha.fluid
MULES: Correcting alpha.fluid
Liquid phase volume fraction = 0.745483  Min(alpha.fluid) = -0.00464421  Max(alpha.fluid) = 1.00022
smoothSolver:  Solving for alpha.fluid, Initial residual = 0.000290195, Final residual = 2.58405e-10, No Iterations 3
Phase-1 volume fraction = 0.745483  Min(alpha.fluid) = -0.000367829  Max(alpha.fluid) = 1.0002
MULES: Correcting alpha.fluid
MULES: Correcting alpha.fluid
Liquid phase volume fraction = 0.745483  Min(alpha.fluid) = -0.00426197  Max(alpha.fluid) = 1.0005
smoothSolver:  Solving for T, Initial residual = 0.000875027, Final residual = 0.000668486, No Iterations 1000
min/max(T) = 298.15, 298.15
GAMG:  Solving for p_rgh, Initial residual = 0.00604912, Final residual = 1.12387e-05, No Iterations 2
GAMGPCG:  Solving for p_rgh, Initial residual = 2.46411e-05, Final residual = 9.4502e-10, No Iterations 7
ExecutionTime = 3.37 s  ClockTime = 3 s

Courant Number mean: 0.0167339 max: 3.38645
Interface Courant Number mean: 0.00275634 max: 2.66986
deltaT = 0.000560897
Time = 0.0132692

PIMPLE: iteration 1
smoothSolver:  Solving for alpha.fluid, Initial residual = 0.000347377, Final residual = 8.31985e-09, No Iterations 2
Phase-1 volume fraction = 0.745483  Min(alpha.fluid) = -0.00299616  Max(alpha.fluid) = 1.00047
MULES: Correcting alpha.fluid
MULES: Correcting alpha.fluid
Liquid phase volume fraction = 0.745483  Min(alpha.fluid) = -0.00817349  Max(alpha.fluid) = 1.00047
smoothSolver:  Solving for alpha.fluid, Initial residual = 0.00033423, Final residual = 7.74254e-09, No Iterations 2
Phase-1 volume fraction = 0.745483  Min(alpha.fluid) = -0.00187819  Max(alpha.fluid) = 1.00044
MULES: Correcting alpha.fluid
MULES: Correcting alpha.fluid
Liquid phase volume fraction = 0.745483  Min(alpha.fluid) = -0.00685252  Max(alpha.fluid) = 1.00044
smoothSolver:  Solving for T, Initial residual = 0.000758003, Final residual = 0.000496252, No Iterations 1000
min/max(T) = 298.15, 298.15
GAMG:  Solving for p_rgh, Initial residual = 0.00634551, Final residual = 6.01823e-05, No Iterations 1
GAMGPCG:  Solving for p_rgh, Initial residual = 0.000100883, Final residual = 7.47777e-10, No Iterations 8
ExecutionTime = 3.48 s  ClockTime = 3 s

Courant Number mean: 0.00558589 max: 0.434923
Interface Courant Number mean: 0.000628754 max: 0.367567
deltaT = 0.000673077
Time = 0.0139423

PIMPLE: iteration 1
smoothSolver:  Solving for alpha.fluid, Initial residual = 0.000190265, Final residual = 6.50065e-10, No Iterations 2
Phase-1 volume fraction = 0.745483  Min(alpha.fluid) = -0.00577561  Max(alpha.fluid) = 1.00041
MULES: Correcting alpha.fluid
MULES: Correcting alpha.fluid
Liquid phase volume fraction = 0.745483  Min(alpha.fluid) = -0.00576629  Max(alpha.fluid) = 1.00041
smoothSolver:  Solving for alpha.fluid, Initial residual = 0.000188312, Final residual = 6.44665e-10, No Iterations 2
Phase-1 volume fraction = 0.745483  Min(alpha.fluid) = -0.00484174  Max(alpha.fluid) = 1.00038
MULES: Correcting alpha.fluid
MULES: Correcting alpha.fluid
Liquid phase volume fraction = 0.745483  Min(alpha.fluid) = -0.00483486  Max(alpha.fluid) = 1.00038
smoothSolver:  Solving for T, Initial residual = 0.000656368, Final residual = 0.000472105, No Iterations 1000
min/max(T) = 298.15, 298.15
GAMG:  Solving for p_rgh, Initial residual = 0.00522871, Final residual = 3.0495e-05, No Iterations 1
GAMGPCG:  Solving for p_rgh, Initial residual = 3.87607e-05, Final residual = 6.76627e-10, No Iterations 7
ExecutionTime = 3.58 s  ClockTime = 3 s

Courant Number mean: 0.00820386 max: 1.30207
Interface Courant Number mean: 0.00138801 max: 1.30207
deltaT = 0.000504808
Time = 0.0144471

PIMPLE: iteration 1
smoothSolver:  Solving for alpha.fluid, Initial residual = 0.000240226, Final residual = 9.0247e-10, No Iterations 2
Phase-1 volume fraction = 0.745483  Min(alpha.fluid) = -0.00121885  Max(alpha.fluid) = 1.00036
MULES: Correcting alpha.fluid
MULES: Correcting alpha.fluid
Liquid phase volume fraction = 0.745483  Min(alpha.fluid) = -0.00439326  Max(alpha.fluid) = 1.00036
smoothSolver:  Solving for alpha.fluid, Initial residual = 0.000226808, Final residual = 7.25824e-10, No Iterations 2
Phase-1 volume fraction = 0.745483  Min(alpha.fluid) = -0.000951834  Max(alpha.fluid) = 1.00034
MULES: Correcting alpha.fluid
MULES: Correcting alpha.fluid
Liquid phase volume fraction = 0.745483  Min(alpha.fluid) = -0.0040114  Max(alpha.fluid) = 1.00034
smoothSolver:  Solving for T, Initial residual = 0.000676044, Final residual = 0.000499934, No Iterations 1000
min/max(T) = 298.15, 298.15
GAMG:  Solving for p_rgh, Initial residual = 0.0044509, Final residual = 3.24084e-05, No Iterations 1
GAMGPCG:  Solving for p_rgh, Initial residual = 8.31184e-05, Final residual = 4.73399e-10, No Iterations 9
ExecutionTime = 3.69 s  ClockTime = 3 s

Courant Number mean: 0.00550436 max: 0.566924
Interface Courant Number mean: 0.000689094 max: 0.438668
deltaT = 0.000616987
Time = 0.0150641

PIMPLE: iteration 1
smoothSolver:  Solving for alpha.fluid, Initial residual = 0.000176409, Final residual = 2.77836e-10, No Iterations 2
Phase-1 volume fraction = 0.745483  Min(alpha.fluid) = -0.00111278  Max(alpha.fluid) = 1.00031
MULES: Correcting alpha.fluid
MULES: Correcting alpha.fluid
Liquid phase volume fraction = 0.745483  Min(alpha.fluid) = -0.00111276  Max(alpha.fluid) = 1.00031
smoothSolver:  Solving for alpha.fluid, Initial residual = 0.000174259, Final residual = 2.80362e-10, No Iterations 2
Phase-1 volume fraction = 0.745483  Min(alpha.fluid) = -0.00100937  Max(alpha.fluid) = 1.00029
MULES: Correcting alpha.fluid
MULES: Correcting alpha.fluid
Liquid phase volume fraction = 0.745483  Min(alpha.fluid) = -0.00100937  Max(alpha.fluid) = 1.00029
smoothSolver:  Solving for T, Initial residual = 0.000754888, Final residual = 0.000482342, No Iterations 1000
min/max(T) = 298.15, 298.15
GAMG:  Solving for p_rgh, Initial residual = 0.00432104, Final residual = 3.4705e-05, No Iterations 1
GAMGPCG:  Solving for p_rgh, Initial residual = 4.36062e-05, Final residual = 3.89394e-10, No Iterations 9
ExecutionTime = 3.8 s  ClockTime = 3 s

Courant Number mean: 0.00691938 max: 0.620992
Interface Courant Number mean: 0.000946058 max: 0.535144
deltaT = 0.000705128
Time = 0.0157692

PIMPLE: iteration 1
smoothSolver:  Solving for alpha.fluid, Initial residual = 0.000212835, Final residual = 6.30869e-10, No Iterations 2
Phase-1 volume fraction = 0.745483  Min(alpha.fluid) = -0.000696193  Max(alpha.fluid) = 1.00027
MULES: Correcting alpha.fluid
MULES: Correcting alpha.fluid
Liquid phase volume fraction = 0.745483  Min(alpha.fluid) = -0.00107051  Max(alpha.fluid) = 1.00027
smoothSolver:  Solving for alpha.fluid, Initial residual = 0.000208672, Final residual = 6.56813e-10, No Iterations 2
Phase-1 volume fraction = 0.745483  Min(alpha.fluid) = -0.000479625  Max(alpha.fluid) = 1.00025
MULES: Correcting alpha.fluid
MULES: Correcting alpha.fluid
Liquid phase volume fraction = 0.745483  Min(alpha.fluid) = -0.00128932  Max(alpha.fluid) = 1.00025
smoothSolver:  Solving for T, Initial residual = 0.000672705, Final residual = 0.000496224, No Iterations 1000
min/max(T) = 298.15, 298.15
GAMG:  Solving for p_rgh, Initial residual = 0.00496461, Final residual = 3.6683e-05, No Iterations 1
GAMGPCG:  Solving for p_rgh, Initial residual = 4.72544e-05, Final residual = 2.45644e-10, No Iterations 9
ExecutionTime = 3.9 s  ClockTime = 3 s

Courant Number mean: 0.00793261 max: 0.707334
Interface Courant Number mean: 0.000997816 max: 0.585764
deltaT = 0.000846154
Time = 0.0166154

PIMPLE: iteration 1
smoothSolver:  Solving for alpha.fluid, Initial residual = 0.000253413, Final residual = 3.36111e-09, No Iterations 2
Phase-1 volume fraction = 0.745483  Min(alpha.fluid) = -0.000463498  Max(alpha.fluid) = 1.00022
MULES: Correcting alpha.fluid
MULES: Correcting alpha.fluid
Liquid phase volume fraction = 0.745483  Min(alpha.fluid) = -0.00150077  Max(alpha.fluid) = 1.00022
smoothSolver:  Solving for alpha.fluid, Initial residual = 0.000249471, Final residual = 3.31232e-09, No Iterations 2
Phase-1 volume fraction = 0.745483  Min(alpha.fluid) = -0.000359793  Max(alpha.fluid) = 1.0002
MULES: Correcting alpha.fluid
MULES: Correcting alpha.fluid
Liquid phase volume fraction = 0.745483  Min(alpha.fluid) = -0.00173407  Max(alpha.fluid) = 1.00109
smoothSolver:  Solving for T, Initial residual = 0.000688797, Final residual = 0.00054287, No Iterations 1000
min/max(T) = 298.15, 298.15
GAMG:  Solving for p_rgh, Initial residual = 0.00604034, Final residual = 3.50269e-05, No Iterations 1
GAMGPCG:  Solving for p_rgh, Initial residual = 4.67161e-05, Final residual = 3.88435e-10, No Iterations 8
ExecutionTime = 4.01 s  ClockTime = 4 s

Courant Number mean: 0.00985285 max: 1.0945
Interface Courant Number mean: 0.0011896 max: 0.788112
deltaT = 0.000846154
Time = 0.0174615

PIMPLE: iteration 1
smoothSolver:  Solving for alpha.fluid, Initial residual = 0.00028849, Final residual = 2.7598e-09, No Iterations 2
Phase-1 volume fraction = 0.745483  Min(alpha.fluid) = -0.000936052  Max(alpha.fluid) = 1.00099
MULES: Correcting alpha.fluid
MULES: Correcting alpha.fluid
Liquid phase volume fraction = 0.745483  Min(alpha.fluid) = -0.00188048  Max(alpha.fluid) = 1.00099
smoothSolver:  Solving for alpha.fluid, Initial residual = 0.000285092, Final residual = 2.62307e-09, No Iterations 2
Phase-1 volume fraction = 0.745483  Min(alpha.fluid) = -0.000912122  Max(alpha.fluid) = 1.00091
MULES: Correcting alpha.fluid
MULES: Correcting alpha.fluid
Liquid phase volume fraction = 0.745483  Min(alpha.fluid) = -0.00110784  Max(alpha.fluid) = 1.00091
smoothSolver:  Solving for T, Initial residual = 0.00066643, Final residual = 0.000548034, No Iterations 1000
min/max(T) = 298.15, 298.15
GAMG:  Solving for p_rgh, Initial residual = 0.0100996, Final residual = 6.90077e-05, No Iterations 1
GAMGPCG:  Solving for p_rgh, Initial residual = 7.84152e-05, Final residual = 9.0408e-10, No Iterations 7
ExecutionTime = 4.12 s  ClockTime = 4 s

Courant Number mean: 0.0107819 max: 0.928325
Interface Courant Number mean: 0.00139471 max: 0.779512
deltaT = 0.000846154
Time = 0.0183077

PIMPLE: iteration 1
smoothSolver:  Solving for alpha.fluid, Initial residual = 0.000396438, Final residual = 3.10941e-09, No Iterations 2
Phase-1 volume fraction = 0.745483  Min(alpha.fluid) = -0.000389442  Max(alpha.fluid) = 1.00083
MULES: Correcting alpha.fluid
MULES: Correcting alpha.fluid
Liquid phase volume fraction = 0.745483  Min(alpha.fluid) = -0.00240115  Max(alpha.fluid) = 1.00083
smoothSolver:  Solving for alpha.fluid, Initial residual = 0.00039052, Final residual = 2.92795e-09, No Iterations 2
Phase-1 volume fraction = 0.745483  Min(alpha.fluid) = -0.000256434  Max(alpha.fluid) = 1.00076
MULES: Correcting alpha.fluid
MULES: Correcting alpha.fluid
Liquid phase volume fraction = 0.745483  Min(alpha.fluid) = -0.00193101  Max(alpha.fluid) = 1.00076
smoothSolver:  Solving for T, Initial residual = 0.000667811, Final residual = 0.000545633, No Iterations 1000
min/max(T) = 298.15, 298.15
GAMG:  Solving for p_rgh, Initial residual = 0.0137593, Final residual = 7.15589e-05, No Iterations 1
GAMGPCG:  Solving for p_rgh, Initial residual = 8.96101e-05, Final residual = 7.35132e-10, No Iterations 9
ExecutionTime = 4.22 s  ClockTime = 4 s

Courant Number mean: 0.0121237 max: 0.835832
Interface Courant Number mean: 0.00165239 max: 0.762559
deltaT = 0.000846154
Time = 0.0191538

PIMPLE: iteration 1
smoothSolver:  Solving for alpha.fluid, Initial residual = 0.000488317, Final residual = 5.08509e-09, No Iterations 2
Phase-1 volume fraction = 0.745483  Min(alpha.fluid) = -0.00170956  Max(alpha.fluid) = 1.00069
MULES: Correcting alpha.fluid
MULES: Correcting alpha.fluid
Liquid phase volume fraction = 0.745483  Min(alpha.fluid) = -0.00301948  Max(alpha.fluid) = 1.00069
smoothSolver:  Solving for alpha.fluid, Initial residual = 0.000470259, Final residual = 4.7047e-09, No Iterations 2
Phase-1 volume fraction = 0.745483  Min(alpha.fluid) = -0.00149633  Max(alpha.fluid) = 1.00063
MULES: Correcting alpha.fluid
MULES: Correcting alpha.fluid
Liquid phase volume fraction = 0.745483  Min(alpha.fluid) = -0.00387574  Max(alpha.fluid) = 1.00063
smoothSolver:  Solving for T, Initial residual = 0.000668765, Final residual = 0.000547697, No Iterations 1000
min/max(T) = 298.15, 298.15
GAMG:  Solving for p_rgh, Initial residual = 0.0121441, Final residual = 4.38492e-05, No Iterations 1
GAMGPCG:  Solving for p_rgh, Initial residual = 7.79962e-05, Final residual = 8.37125e-10, No Iterations 7
ExecutionTime = 4.33 s  ClockTime = 4 s

Courant Number mean: 0.0122186 max: 1.05124
Interface Courant Number mean: 0.0016732 max: 0.806727
deltaT = 0.000846154
Time = 0.02

PIMPLE: iteration 1
smoothSolver:  Solving for alpha.fluid, Initial residual = 0.000429403, Final residual = 3.53281e-09, No Iterations 2
Phase-1 volume fraction = 0.745483  Min(alpha.fluid) = -0.0034952  Max(alpha.fluid) = 1.00058
MULES: Correcting alpha.fluid
MULES: Correcting alpha.fluid
Liquid phase volume fraction = 0.745483  Min(alpha.fluid) = -0.0034952  Max(alpha.fluid) = 1.00047
smoothSolver:  Solving for alpha.fluid, Initial residual = 0.000420246, Final residual = 3.61008e-09, No Iterations 2
Phase-1 volume fraction = 0.745483  Min(alpha.fluid) = -0.00314423  Max(alpha.fluid) = 1.00043
MULES: Correcting alpha.fluid
MULES: Correcting alpha.fluid
Liquid phase volume fraction = 0.745483  Min(alpha.fluid) = -0.00360338  Max(alpha.fluid) = 1.00043
smoothSolver:  Solving for T, Initial residual = 0.000664883, Final residual = 0.000545481, No Iterations 1000
min/max(T) = 298.15, 298.15
GAMG:  Solving for p_rgh, Initial residual = 0.011815, Final residual = 5.30055e-05, No Iterations 1
GAMGPCG:  Solving for p_rgh, Initial residual = 7.77091e-05, Final residual = 4.5907e-10, No Iterations 8
ExecutionTime = 4.45 s  ClockTime = 4 s

Courant Number mean: 0.0122689 max: 0.950514
Interface Courant Number mean: 0.00179667 max: 0.651042
deltaT = 0.001
Time = 0.021

PIMPLE: iteration 1
smoothSolver:  Solving for alpha.fluid, Initial residual = 0.000460804, Final residual = 6.79411e-09, No Iterations 2
Phase-1 volume fraction = 0.745483  Min(alpha.fluid) = -0.00307708  Max(alpha.fluid) = 1.0004
MULES: Correcting alpha.fluid
MULES: Correcting alpha.fluid
Liquid phase volume fraction = 0.745483  Min(alpha.fluid) = -0.00470282  Max(alpha.fluid) = 1.0004
smoothSolver:  Solving for alpha.fluid, Initial residual = 0.000453538, Final residual = 6.62936e-09, No Iterations 2
Phase-1 volume fraction = 0.745483  Min(alpha.fluid) = -0.00249025  Max(alpha.fluid) = 1.00036
MULES: Correcting alpha.fluid
MULES: Correcting alpha.fluid
Liquid phase volume fraction = 0.745483  Min(alpha.fluid) = -0.00451651  Max(alpha.fluid) = 1.00036
smoothSolver:  Solving for T, Initial residual = 0.000777672, Final residual = 0.000588858, No Iterations 1000
min/max(T) = 298.15, 298.15
GAMG:  Solving for p_rgh, Initial residual = 0.0116727, Final residual = 4.27501e-05, No Iterations 1
GAMGPCG:  Solving for p_rgh, Initial residual = 6.8769e-05, Final residual = 9.40718e-10, No Iterations 7
ExecutionTime = 4.56 s  ClockTime = 4 s

Courant Number mean: 0.0149649 max: 0.942516
Interface Courant Number mean: 0.00222362 max: 0.871508
deltaT = 0.001125
Time = 0.022125

PIMPLE: iteration 1
smoothSolver:  Solving for alpha.fluid, Initial residual = 0.000532129, Final residual = 8.39162e-11, No Iterations 3
Phase-1 volume fraction = 0.745483  Min(alpha.fluid) = -0.00391372  Max(alpha.fluid) = 1.00033
MULES: Correcting alpha.fluid
MULES: Correcting alpha.fluid
Liquid phase volume fraction = 0.745483  Min(alpha.fluid) = -0.00641098  Max(alpha.fluid) = 1.00033
smoothSolver:  Solving for alpha.fluid, Initial residual = 0.000513474, Final residual = 7.31478e-11, No Iterations 3
Phase-1 volume fraction = 0.745483  Min(alpha.fluid) = -0.00339175  Max(alpha.fluid) = 1.0003
MULES: Correcting alpha.fluid
MULES: Correcting alpha.fluid
Liquid phase volume fraction = 0.745483  Min(alpha.fluid) = -0.00577729  Max(alpha.fluid) = 1.0003
smoothSolver:  Solving for T, Initial residual = 0.000868098, Final residual = 0.000602881, No Iterations 1000
min/max(T) = 298.15, 298.15
GAMG:  Solving for p_rgh, Initial residual = 0.0106451, Final residual = 3.37478e-05, No Iterations 1
GAMGPCG:  Solving for p_rgh, Initial residual = 6.34446e-05, Final residual = 7.73595e-10, No Iterations 8
ExecutionTime = 4.66 s  ClockTime = 4 s

Courant Number mean: 0.0180264 max: 1.22056
Interface Courant Number mean: 0.00282899 max: 1.22056
deltaT = 0.000875
Time = 0.023

PIMPLE: iteration 1
smoothSolver:  Solving for alpha.fluid, Initial residual = 0.000454441, Final residual = 6.39845e-09, No Iterations 2
Phase-1 volume fraction = 0.745483  Min(alpha.fluid) = -0.00502291  Max(alpha.fluid) = 1.00028
MULES: Correcting alpha.fluid
MULES: Correcting alpha.fluid
Liquid phase volume fraction = 0.745483  Min(alpha.fluid) = -0.00508374  Max(alpha.fluid) = 1.00028
smoothSolver:  Solving for alpha.fluid, Initial residual = 0.000441964, Final residual = 6.23522e-09, No Iterations 2
Phase-1 volume fraction = 0.745483  Min(alpha.fluid) = -0.00436434  Max(alpha.fluid) = 1.00026
MULES: Correcting alpha.fluid
MULES: Correcting alpha.fluid
Liquid phase volume fraction = 0.745483  Min(alpha.fluid) = -0.005468  Max(alpha.fluid) = 1.00119
smoothSolver:  Solving for T, Initial residual = 0.000723322, Final residual = 0.000553111, No Iterations 1000
min/max(T) = 298.15, 298.15
GAMG:  Solving for p_rgh, Initial residual = 0.0119901, Final residual = 3.7044e-05, No Iterations 1
GAMGPCG:  Solving for p_rgh, Initial residual = 6.63093e-05, Final residual = 2.57549e-10, No Iterations 9
ExecutionTime = 4.77 s  ClockTime = 4 s

Courant Number mean: 0.0133242 max: 1.0921
Interface Courant Number mean: 0.00175074 max: 1.00113
deltaT = 0.000875
Time = 0.023875

PIMPLE: iteration 1
smoothSolver:  Solving for alpha.fluid, Initial residual = 0.000332047, Final residual = 8.00686e-09, No Iterations 2
Phase-1 volume fraction = 0.745483  Min(alpha.fluid) = -0.00485523  Max(alpha.fluid) = 1.00107
MULES: Correcting alpha.fluid
MULES: Correcting alpha.fluid
Liquid phase volume fraction = 0.745483  Min(alpha.fluid) = -0.00485323  Max(alpha.fluid) = 1.00107
smoothSolver:  Solving for alpha.fluid, Initial residual = 0.000327646, Final residual = 8.29458e-09, No Iterations 2
Phase-1 volume fraction = 0.745483  Min(alpha.fluid) = -0.004303  Max(alpha.fluid) = 1.00096
MULES: Correcting alpha.fluid
MULES: Correcting alpha.fluid
Liquid phase volume fraction = 0.745483  Min(alpha.fluid) = -0.00430207  Max(alpha.fluid) = 1.00096
smoothSolver:  Solving for T, Initial residual = 0.000687659, Final residual = 0.000552276, No Iterations 1000
min/max(T) = 298.15, 298.15
GAMG:  Solving for p_rgh, Initial residual = 0.00978145, Final residual = 2.75287e-05, No Iterations 1
GAMGPCG:  Solving for p_rgh, Initial residual = 4.4818e-05, Final residual = 8.66223e-10, No Iterations 9
ExecutionTime = 4.88 s  ClockTime = 4 s

Courant Number mean: 0.0135492 max: 1.10912
Interface Courant Number mean: 0.00167512 max: 0.756028
deltaT = 0.00102083
Time = 0.0248958

PIMPLE: iteration 1
smoothSolver:  Solving for alpha.fluid, Initial residual = 0.000394028, Final residual = 2.64832e-10, No Iterations 3
Phase-1 volume fraction = 0.745483  Min(alpha.fluid) = -0.00264462  Max(alpha.fluid) = 1.00085
MULES: Correcting alpha.fluid
MULES: Correcting alpha.fluid
Liquid phase volume fraction = 0.745483  Min(alpha.fluid) = -0.00621306  Max(alpha.fluid) = 1.00085
smoothSolver:  Solving for alpha.fluid, Initial residual = 0.000385469, Final residual = 2.06519e-10, No Iterations 3
Phase-1 volume fraction = 0.745483  Min(alpha.fluid) = -0.00156605  Max(alpha.fluid) = 1.00075
MULES: Correcting alpha.fluid
MULES: Correcting alpha.fluid
Liquid phase volume fraction = 0.745483  Min(alpha.fluid) = -0.00776532  Max(alpha.fluid) = 1.00075
smoothSolver:  Solving for T, Initial residual = 0.000769719, Final residual = 0.00058619, No Iterations 1000
min/max(T) = 298.15, 298.15
GAMG:  Solving for p_rgh, Initial residual = 0.00849595, Final residual = 2.02353e-05, No Iterations 1
GAMGPCG:  Solving for p_rgh, Initial residual = 4.02869e-05, Final residual = 5.5218e-10, No Iterations 7
ExecutionTime = 4.98 s  ClockTime = 5 s

Courant Number mean: 0.0159869 max: 1.42492
Interface Courant Number mean: 0.00199571 max: 0.762801
deltaT = 0.00127604
Time = 0.0261719

PIMPLE: iteration 1
smoothSolver:  Solving for alpha.fluid, Initial residual = 0.000495698, Final residual = 1.13714e-09, No Iterations 3
Phase-1 volume fraction = 0.745483  Min(alpha.fluid) = -0.00262207  Max(alpha.fluid) = 1.00064
MULES: Correcting alpha.fluid
MULES: Correcting alpha.fluid
Liquid phase volume fraction = 0.745483  Min(alpha.fluid) = -0.0178729  Max(alpha.fluid) = 1.00064
smoothSolver:  Solving for alpha.fluid, Initial residual = 0.000485612, Final residual = 7.5243e-10, No Iterations 3
Phase-1 volume fraction = 0.745483  Min(alpha.fluid) = -0.00232  Max(alpha.fluid) = 1.00055
MULES: Correcting alpha.fluid
MULES: Correcting alpha.fluid
Liquid phase volume fraction = 0.745483  Min(alpha.fluid) = -0.0177279  Max(alpha.fluid) = 1.00178
smoothSolver:  Solving for T, Initial residual = 0.000942598, Final residual = 0.000605018, No Iterations 1000
min/max(T) = 298.15, 298.15
GAMG:  Solving for p_rgh, Initial residual = 0.0103262, Final residual = 3.06532e-05, No Iterations 1
GAMGPCG:  Solving for p_rgh, Initial residual = 5.20368e-05, Final residual = 3.97362e-10, No Iterations 7
ExecutionTime = 5.09 s  ClockTime = 5 s

Courant Number mean: 0.0215615 max: 1.51522
Interface Courant Number mean: 0.0031774 max: 1.23718
deltaT = 0.000957031
Time = 0.0271289

PIMPLE: iteration 1
smoothSolver:  Solving for alpha.fluid, Initial residual = 0.000487056, Final residual = 1.1874e-10, No Iterations 3
Phase-1 volume fraction = 0.745483  Min(alpha.fluid) = -0.00344943  Max(alpha.fluid) = 1.0016
MULES: Correcting alpha.fluid
MULES: Correcting alpha.fluid
Liquid phase volume fraction = 0.745483  Min(alpha.fluid) = -0.00466902  Max(alpha.fluid) = 1.0016
smoothSolver:  Solving for alpha.fluid, Initial residual = 0.000476213, Final residual = 8.27292e-11, No Iterations 3
Phase-1 volume fraction = 0.745483  Min(alpha.fluid) = -0.00284057  Max(alpha.fluid) = 1.00144
MULES: Correcting alpha.fluid
MULES: Correcting alpha.fluid
Liquid phase volume fraction = 0.745483  Min(alpha.fluid) = -0.00412062  Max(alpha.fluid) = 1.00144
smoothSolver:  Solving for T, Initial residual = 0.000762953, Final residual = 0.000574572, No Iterations 1000
min/max(T) = 298.15, 298.15
GAMG:  Solving for p_rgh, Initial residual = 0.0122096, Final residual = 3.55361e-05, No Iterations 1
GAMGPCG:  Solving for p_rgh, Initial residual = 7.3048e-05, Final residual = 4.90152e-10, No Iterations 10
ExecutionTime = 5.2 s  ClockTime = 5 s

Courant Number mean: 0.0156985 max: 0.853395
Interface Courant Number mean: 0.00216644 max: 0.74244
deltaT = 0.000957031
Time = 0.0280859

PIMPLE: iteration 1
smoothSolver:  Solving for alpha.fluid, Initial residual = 0.000413683, Final residual = 7.61878e-09, No Iterations 2
Phase-1 volume fraction = 0.745483  Min(alpha.fluid) = -0.00361915  Max(alpha.fluid) = 1.00129
MULES: Correcting alpha.fluid
MULES: Correcting alpha.fluid
Liquid phase volume fraction = 0.745483  Min(alpha.fluid) = -0.00646072  Max(alpha.fluid) = 1.00129
smoothSolver:  Solving for alpha.fluid, Initial residual = 0.000408056, Final residual = 7.52688e-09, No Iterations 2
Phase-1 volume fraction = 0.745483  Min(alpha.fluid) = -0.00319302  Max(alpha.fluid) = 1.00116
MULES: Correcting alpha.fluid
MULES: Correcting alpha.fluid
Liquid phase volume fraction = 0.745483  Min(alpha.fluid) = -0.00797844  Max(alpha.fluid) = 1.00116
smoothSolver:  Solving for T, Initial residual = 0.000754098, Final residual = 0.000571178, No Iterations 1000
min/max(T) = 298.15, 298.15
GAMG:  Solving for p_rgh, Initial residual = 0.012708, Final residual = 3.49303e-05, No Iterations 1
GAMGPCG:  Solving for p_rgh, Initial residual = 5.91725e-05, Final residual = 7.23571e-10, No Iterations 8
ExecutionTime = 5.3 s  ClockTime = 5 s

Courant Number mean: 0.0156623 max: 1.08368
Interface Courant Number mean: 0.00178899 max: 0.753073
deltaT = 0.000957031
Time = 0.029043

PIMPLE: iteration 1
smoothSolver:  Solving for alpha.fluid, Initial residual = 0.000353764, Final residual = 5.03926e-11, No Iterations 3
Phase-1 volume fraction = 0.745483  Min(alpha.fluid) = -0.00483982  Max(alpha.fluid) = 1.00105
MULES: Correcting alpha.fluid
MULES: Correcting alpha.fluid
Liquid phase volume fraction = 0.745483  Min(alpha.fluid) = -0.00998405  Max(alpha.fluid) = 1.00105
smoothSolver:  Solving for alpha.fluid, Initial residual = 0.000348775, Final residual = 4.44896e-11, No Iterations 3
Phase-1 volume fraction = 0.745483  Min(alpha.fluid) = -0.00414468  Max(alpha.fluid) = 1.00095
MULES: Correcting alpha.fluid
MULES: Correcting alpha.fluid
Liquid phase volume fraction = 0.745483  Min(alpha.fluid) = -0.0112453  Max(alpha.fluid) = 1.00095
smoothSolver:  Solving for T, Initial residual = 0.000758465, Final residual = 0.000574309, No Iterations 1000
min/max(T) = 298.15, 298.15
GAMG:  Solving for p_rgh, Initial residual = 0.00965285, Final residual = 3.09828e-05, No Iterations 1
GAMGPCG:  Solving for p_rgh, Initial residual = 4.39991e-05, Final residual = 9.06346e-10, No Iterations 7
ExecutionTime = 5.41 s  ClockTime = 5 s

Courant Number mean: 0.0160246 max: 0.987227
Interface Courant Number mean: 0.00180876 max: 0.75994
deltaT = 0.000957031
Time = 0.03

PIMPLE: iteration 1
smoothSolver:  Solving for alpha.fluid, Initial residual = 0.000358649, Final residual = 7.40904e-09, No Iterations 2
Phase-1 volume fraction = 0.745483  Min(alpha.fluid) = -0.00330265  Max(alpha.fluid) = 1.00086
MULES: Correcting alpha.fluid
MULES: Correcting alpha.fluid
Liquid phase volume fraction = 0.745483  Min(alpha.fluid) = -0.00330123  Max(alpha.fluid) = 1.00123
smoothSolver:  Solving for alpha.fluid, Initial residual = 0.000353351, Final residual = 7.59512e-09, No Iterations 2
Phase-1 volume fraction = 0.745483  Min(alpha.fluid) = -0.00262802  Max(alpha.fluid) = 1.00116
MULES: Correcting alpha.fluid
MULES: Correcting alpha.fluid
Liquid phase volume fraction = 0.745483  Min(alpha.fluid) = -0.00262672  Max(alpha.fluid) = 1.00116
smoothSolver:  Solving for T, Initial residual = 0.00074356, Final residual = 0.000574839, No Iterations 1000
min/max(T) = 298.15, 298.15
GAMG:  Solving for p_rgh, Initial residual = 0.00871914, Final residual = 2.75866e-05, No Iterations 1
GAMGPCG:  Solving for p_rgh, Initial residual = 4.32228e-05, Final residual = 9.55671e-10, No Iterations 8
ExecutionTime = 5.52 s  ClockTime = 5 s

Courant Number mean: 0.0157169 max: 1.11079
Interface Courant Number mean: 0.00170138 max: 0.757748
deltaT = 0.00111111
Time = 0.0311111

PIMPLE: iteration 1
smoothSolver:  Solving for alpha.fluid, Initial residual = 0.000386065, Final residual = 1.76524e-11, No Iterations 3
Phase-1 volume fraction = 0.745483  Min(alpha.fluid) = -0.00205505  Max(alpha.fluid) = 1.00109
MULES: Correcting alpha.fluid
MULES: Correcting alpha.fluid
Liquid phase volume fraction = 0.745483  Min(alpha.fluid) = -0.0023334  Max(alpha.fluid) = 1.00109
smoothSolver:  Solving for alpha.fluid, Initial residual = 0.000381845, Final residual = 1.6205e-11, No Iterations 3
Phase-1 volume fraction = 0.745483  Min(alpha.fluid) = -0.00175022  Max(alpha.fluid) = 1.00101
MULES: Correcting alpha.fluid
MULES: Correcting alpha.fluid
Liquid phase volume fraction = 0.745483  Min(alpha.fluid) = -0.00241798  Max(alpha.fluid) = 1.00101
smoothSolver:  Solving for T, Initial residual = 0.000853842, Final residual = 0.000600873, No Iterations 1000
min/max(T) = 298.15, 298.15
GAMG:  Solving for p_rgh, Initial residual = 0.00720275, Final residual = 2.1942e-05, No Iterations 1
GAMGPCG:  Solving for p_rgh, Initial residual = 3.38546e-05, Final residual = 3.60219e-10, No Iterations 8
ExecutionTime = 5.64 s  ClockTime = 5 s

Courant Number mean: 0.0184887 max: 0.925149
Interface Courant Number mean: 0.00217822 max: 0.89031
deltaT = 0.00126984
Time = 0.032381

PIMPLE: iteration 1
smoothSolver:  Solving for alpha.fluid, Initial residual = 0.000472339, Final residual = 6.19454e-11, No Iterations 3
Phase-1 volume fraction = 0.745483  Min(alpha.fluid) = -0.00209564  Max(alpha.fluid) = 1.00093
MULES: Correcting alpha.fluid
MULES: Correcting alpha.fluid
Liquid phase volume fraction = 0.745483  Min(alpha.fluid) = -0.0024167  Max(alpha.fluid) = 1.00093
smoothSolver:  Solving for alpha.fluid, Initial residual = 0.000465719, Final residual = 5.87898e-11, No Iterations 3
Phase-1 volume fraction = 0.745483  Min(alpha.fluid) = -0.00181501  Max(alpha.fluid) = 1.00086
MULES: Correcting alpha.fluid
MULES: Correcting alpha.fluid
Liquid phase volume fraction = 0.745483  Min(alpha.fluid) = -0.00302409  Max(alpha.fluid) = 1.00086
smoothSolver:  Solving for T, Initial residual = 0.000901092, Final residual = 0.000601132, No Iterations 1000
min/max(T) = 298.15, 298.15
GAMG:  Solving for p_rgh, Initial residual = 0.00942048, Final residual = 1.92393e-05, No Iterations 1
GAMGPCG:  Solving for p_rgh, Initial residual = 3.98746e-05, Final residual = 2.14315e-10, No Iterations 7
ExecutionTime = 5.75 s  ClockTime = 5 s

Courant Number mean: 0.022616 max: 1.31569
Interface Courant Number mean: 0.00323817 max: 1.26192
deltaT = 0.000952381
Time = 0.0333333

PIMPLE: iteration 1
smoothSolver:  Solving for alpha.fluid, Initial residual = 0.000469396, Final residual = 5.64585e-09, No Iterations 2
Phase-1 volume fraction = 0.745483  Min(alpha.fluid) = -0.0020797  Max(alpha.fluid) = 1.0008
MULES: Correcting alpha.fluid
MULES: Correcting alpha.fluid
Liquid phase volume fraction = 0.745483  Min(alpha.fluid) = -0.00822896  Max(alpha.fluid) = 1.0008
smoothSolver:  Solving for alpha.fluid, Initial residual = 0.000465895, Final residual = 5.73807e-09, No Iterations 2
Phase-1 volume fraction = 0.745483  Min(alpha.fluid) = -0.00149809  Max(alpha.fluid) = 1.00075
MULES: Correcting alpha.fluid
MULES: Correcting alpha.fluid
Liquid phase volume fraction = 0.745483  Min(alpha.fluid) = -0.00823062  Max(alpha.fluid) = 1.00146
smoothSolver:  Solving for T, Initial residual = 0.000746809, Final residual = 0.000570385, No Iterations 1000
min/max(T) = 298.15, 298.15
GAMG:  Solving for p_rgh, Initial residual = 0.0102062, Final residual = 2.40815e-05, No Iterations 1
GAMGPCG:  Solving for p_rgh, Initial residual = 6.74705e-05, Final residual = 5.26786e-10, No Iterations 11
ExecutionTime = 5.86 s  ClockTime = 5 s

Courant Number mean: 0.0164467 max: 0.886915
Interface Courant Number mean: 0.00213465 max: 0.830212
deltaT = 0.00111111
Time = 0.0344444

PIMPLE: iteration 1
smoothSolver:  Solving for alpha.fluid, Initial residual = 0.000471565, Final residual = 3.12645e-11, No Iterations 3
Phase-1 volume fraction = 0.745483  Min(alpha.fluid) = -0.00658566  Max(alpha.fluid) = 1.00131
MULES: Correcting alpha.fluid
MULES: Correcting alpha.fluid
Liquid phase volume fraction = 0.745483  Min(alpha.fluid) = -0.00657536  Max(alpha.fluid) = 1.00173
smoothSolver:  Solving for alpha.fluid, Initial residual = 0.000468099, Final residual = 2.82194e-11, No Iterations 3
Phase-1 volume fraction = 0.745483  Min(alpha.fluid) = -0.00525939  Max(alpha.fluid) = 1.00142
MULES: Correcting alpha.fluid
MULES: Correcting alpha.fluid
Liquid phase volume fraction = 0.745483  Min(alpha.fluid) = -0.00525681  Max(alpha.fluid) = 1.00142
smoothSolver:  Solving for T, Initial residual = 0.000845109, Final residual = 0.000596736, No Iterations 1000
min/max(T) = 298.15, 298.15
GAMG:  Solving for p_rgh, Initial residual = 0.0124508, Final residual = 3.56325e-05, No Iterations 1
GAMGPCG:  Solving for p_rgh, Initial residual = 5.98287e-05, Final residual = 7.60477e-10, No Iterations 9
ExecutionTime = 5.97 s  ClockTime = 6 s

Courant Number mean: 0.0199581 max: 1.03912
Interface Courant Number mean: 0.00244311 max: 1.03912
deltaT = 0.00111111
Time = 0.0355556

PIMPLE: iteration 1
smoothSolver:  Solving for alpha.fluid, Initial residual = 0.00045621, Final residual = 3.61512e-11, No Iterations 3
Phase-1 volume fraction = 0.745483  Min(alpha.fluid) = -0.003962  Max(alpha.fluid) = 1.00122
MULES: Correcting alpha.fluid
MULES: Correcting alpha.fluid
Liquid phase volume fraction = 0.745483  Min(alpha.fluid) = -0.00396143  Max(alpha.fluid) = 1.00122
smoothSolver:  Solving for alpha.fluid, Initial residual = 0.000453794, Final residual = 3.1527e-11, No Iterations 3
Phase-1 volume fraction = 0.745483  Min(alpha.fluid) = -0.00297592  Max(alpha.fluid) = 1.0011
MULES: Correcting alpha.fluid
MULES: Correcting alpha.fluid
Liquid phase volume fraction = 0.745483  Min(alpha.fluid) = -0.00297543  Max(alpha.fluid) = 1.0011
smoothSolver:  Solving for T, Initial residual = 0.000831824, Final residual = 0.000598817, No Iterations 1000
min/max(T) = 298.15, 298.15
GAMG:  Solving for p_rgh, Initial residual = 0.0111575, Final residual = 3.82034e-05, No Iterations 1
GAMGPCG:  Solving for p_rgh, Initial residual = 6.44836e-05, Final residual = 9.73517e-10, No Iterations 7
ExecutionTime = 6.07 s  ClockTime = 6 s

Courant Number mean: 0.0208751 max: 1.26541
Interface Courant Number mean: 0.00267573 max: 1.26541
deltaT = 0.000888889
Time = 0.0364444

PIMPLE: iteration 1
smoothSolver:  Solving for alpha.fluid, Initial residual = 0.000405417, Final residual = 5.44533e-09, No Iterations 2
Phase-1 volume fraction = 0.745483  Min(alpha.fluid) = -0.00246753  Max(alpha.fluid) = 1.00102
MULES: Correcting alpha.fluid
MULES: Correcting alpha.fluid
Liquid phase volume fraction = 0.745483  Min(alpha.fluid) = -0.00304719  Max(alpha.fluid) = 1.00102
smoothSolver:  Solving for alpha.fluid, Initial residual = 0.000399634, Final residual = 5.28459e-09, No Iterations 2
Phase-1 volume fraction = 0.745483  Min(alpha.fluid) = -0.00214849  Max(alpha.fluid) = 1.00095
MULES: Correcting alpha.fluid
MULES: Correcting alpha.fluid
Liquid phase volume fraction = 0.745483  Min(alpha.fluid) = -0.00330374  Max(alpha.fluid) = 1.00095
smoothSolver:  Solving for T, Initial residual = 0.000701531, Final residual = 0.000559643, No Iterations 1000
min/max(T) = 298.15, 298.15
GAMG:  Solving for p_rgh, Initial residual = 0.0111983, Final residual = 3.09913e-05, No Iterations 1
GAMGPCG:  Solving for p_rgh, Initial residual = 6.22487e-05, Final residual = 7.17304e-10, No Iterations 8
ExecutionTime = 6.18 s  ClockTime = 6 s

Courant Number mean: 0.0159218 max: 1.03405
Interface Courant Number mean: 0.00167091 max: 1.03405
deltaT = 0.000888889
Time = 0.0373333

PIMPLE: iteration 1
smoothSolver:  Solving for alpha.fluid, Initial residual = 0.000312355, Final residual = 6.03652e-09, No Iterations 2
Phase-1 volume fraction = 0.745483  Min(alpha.fluid) = -0.00268539  Max(alpha.fluid) = 1.00088
MULES: Correcting alpha.fluid
MULES: Correcting alpha.fluid
Liquid phase volume fraction = 0.745483  Min(alpha.fluid) = -0.00268514  Max(alpha.fluid) = 1.00088
smoothSolver:  Solving for alpha.fluid, Initial residual = 0.000314732, Final residual = 6.02475e-09, No Iterations 2
Phase-1 volume fraction = 0.745483  Min(alpha.fluid) = -0.0023915  Max(alpha.fluid) = 1.00082
MULES: Correcting alpha.fluid
MULES: Correcting alpha.fluid
Liquid phase volume fraction = 0.745483  Min(alpha.fluid) = -0.00239135  Max(alpha.fluid) = 1.00082
smoothSolver:  Solving for T, Initial residual = 0.000685922, Final residual = 0.000559042, No Iterations 1000
min/max(T) = 298.15, 298.15
GAMG:  Solving for p_rgh, Initial residual = 0.00680118, Final residual = 2.41907e-05, No Iterations 1
GAMGPCG:  Solving for p_rgh, Initial residual = 3.74187e-05, Final residual = 2.82246e-10, No Iterations 6
ExecutionTime = 6.28 s  ClockTime = 6 s

Courant Number mean: 0.0164692 max: 0.734925
Interface Courant Number mean: 0.001757 max: 0.714112
deltaT = 0.000888889
Time = 0.0382222

PIMPLE: iteration 1
smoothSolver:  Solving for alpha.fluid, Initial residual = 0.000331099, Final residual = 9.1489e-09, No Iterations 2
Phase-1 volume fraction = 0.745483  Min(alpha.fluid) = -0.00197267  Max(alpha.fluid) = 1.00077
MULES: Correcting alpha.fluid
MULES: Correcting alpha.fluid
Liquid phase volume fraction = 0.745483  Min(alpha.fluid) = -0.00197238  Max(alpha.fluid) = 1.00086
smoothSolver:  Solving for alpha.fluid, Initial residual = 0.000328971, Final residual = 8.7834e-09, No Iterations 2
Phase-1 volume fraction = 0.745483  Min(alpha.fluid) = -0.00162642  Max(alpha.fluid) = 1.00081
MULES: Correcting alpha.fluid
MULES: Correcting alpha.fluid
Liquid phase volume fraction = 0.745483  Min(alpha.fluid) = -0.00162618  Max(alpha.fluid) = 1.00124
smoothSolver:  Solving for T, Initial residual = 0.000691164, Final residual = 0.000554582, No Iterations 1000
min/max(T) = 298.15, 298.15
GAMG:  Solving for p_rgh, Initial residual = 0.0075401, Final residual = 2.09546e-05, No Iterations 1
GAMGPCG:  Solving for p_rgh, Initial residual = 3.37944e-05, Final residual = 5.01563e-10, No Iterations 7
ExecutionTime = 6.38 s  ClockTime = 6 s

Courant Number mean: 0.0165447 max: 1.02064
Interface Courant Number mean: 0.00163103 max: 1.01568
deltaT = 0.000888889
Time = 0.0391111

PIMPLE: iteration 1
smoothSolver:  Solving for alpha.fluid, Initial residual = 0.000306933, Final residual = 4.45677e-11, No Iterations 3
Phase-1 volume fraction = 0.745483  Min(alpha.fluid) = -0.00136902  Max(alpha.fluid) = 1.00114
MULES: Correcting alpha.fluid
MULES: Correcting alpha.fluid
Liquid phase volume fraction = 0.745483  Min(alpha.fluid) = -0.00136902  Max(alpha.fluid) = 1.00114
smoothSolver:  Solving for alpha.fluid, Initial residual = 0.00031283, Final residual = 4.36138e-11, No Iterations 3
Phase-1 volume fraction = 0.745483  Min(alpha.fluid) = -0.00115989  Max(alpha.fluid) = 1.00105
MULES: Correcting alpha.fluid
MULES: Correcting alpha.fluid
Liquid phase volume fraction = 0.745483  Min(alpha.fluid) = -0.00115989  Max(alpha.fluid) = 1.00105
smoothSolver:  Solving for T, Initial residual = 0.000682439, Final residual = 0.000554278, No Iterations 1000
min/max(T) = 298.15, 298.15
GAMG:  Solving for p_rgh, Initial residual = 0.00526121, Final residual = 1.27212e-05, No Iterations 1
GAMGPCG:  Solving for p_rgh, Initial residual = 2.39801e-05, Final residual = 3.21396e-10, No Iterations 7
ExecutionTime = 6.49 s  ClockTime = 6 s

Courant Number mean: 0.0163731 max: 0.953217
Interface Courant Number mean: 0.00167113 max: 0.746437
deltaT = 0.000888889
Time = 0.04

PIMPLE: iteration 1
smoothSolver:  Solving for alpha.fluid, Initial residual = 0.000306231, Final residual = 9.07418e-09, No Iterations 2
Phase-1 volume fraction = 0.745483  Min(alpha.fluid) = -0.000986209  Max(alpha.fluid) = 1.00098
MULES: Correcting alpha.fluid
MULES: Correcting alpha.fluid
Liquid phase volume fraction = 0.745483  Min(alpha.fluid) = -0.000986201  Max(alpha.fluid) = 1.00098
smoothSolver:  Solving for alpha.fluid, Initial residual = 0.00030834, Final residual = 8.88319e-09, No Iterations 2
Phase-1 volume fraction = 0.745483  Min(alpha.fluid) = -0.000838242  Max(alpha.fluid) = 1.00091
MULES: Correcting alpha.fluid
MULES: Correcting alpha.fluid
Liquid phase volume fraction = 0.745483  Min(alpha.fluid) = -0.000838226  Max(alpha.fluid) = 1.00091
smoothSolver:  Solving for T, Initial residual = 0.000679115, Final residual = 0.000556607, No Iterations 1000
min/max(T) = 298.15, 298.15
GAMG:  Solving for p_rgh, Initial residual = 0.00515269, Final residual = 1.15738e-05, No Iterations 1
GAMGPCG:  Solving for p_rgh, Initial residual = 2.06076e-05, Final residual = 9.36433e-10, No Iterations 5
ExecutionTime = 6.61 s  ClockTime = 6 s

Courant Number mean: 0.0164668 max: 1.28322
Interface Courant Number mean: 0.00159233 max: 0.915185
deltaT = 0.001
Time = 0.041

PIMPLE: iteration 1
smoothSolver:  Solving for alpha.fluid, Initial residual = 0.000333453, Final residual = 1.90406e-10, No Iterations 3
Phase-1 volume fraction = 0.745483  Min(alpha.fluid) = -0.000705671  Max(alpha.fluid) = 1.00085
MULES: Correcting alpha.fluid
MULES: Correcting alpha.fluid
Liquid phase volume fraction = 0.745483  Min(alpha.fluid) = -0.000928605  Max(alpha.fluid) = 1.00085
smoothSolver:  Solving for alpha.fluid, Initial residual = 0.000329624, Final residual = 2.00186e-10, No Iterations 3
Phase-1 volume fraction = 0.745483  Min(alpha.fluid) = -0.000641155  Max(alpha.fluid) = 1.00079
MULES: Correcting alpha.fluid
MULES: Correcting alpha.fluid
Liquid phase volume fraction = 0.745483  Min(alpha.fluid) = -0.0013956  Max(alpha.fluid) = 1.00079
