/*---------------------------------------------------------------------------*\
| =========                 |                                                 |
| \\      /  F ield         | OpenFOAM: The Open Source CFD Toolbox           |
|  \\    /   O peration     | Version:  2206                                  |
|   \\  /    A nd           | Website:  www.openfoam.com                      |
|    \\/     M anipulation  |                                                 |
\*---------------------------------------------------------------------------*/
Build  : _76d719d1-20220624 OPENFOAM=2206 version=v2206
Arch   : "LSB;label=64;scalar=64"
Exec   : snappyHexMesh -parallel -overwrite
Date   : Nov 16 2023
Time   : 14:40:46
Host   : DESKTOP-BTFG136
PID    : 26835
I/O    : uncollated
Case   : /home/noreff/works/OpenFOAM-user/v2206/Projects/ADTank
nProcs : 4
Hosts  :
(
    (DESKTOP-BTFG136 4)
)
Pstream initialized with:
    floatTransfer      : 0
    nProcsSimpleSum    : 0
    commsType          : nonBlocking
    polling iterations : 0
trapFpe: Floating point exception trapping enabled (FOAM_SIGFPE).
fileModificationChecking : Monitoring run-time modified files using timeStampMaster (fileModificationSkew 5, maxFileModificationPolls 20)
allowSystemOperations : Allowing user-supplied system call operations

// * * * * * * * * * * * * * * * * * * * * * * * * * * * * * * * * * * * * * //
Create time

Create mesh for time = 0

Read mesh in = 0.04 s

Overall mesh bounding box  : (-150 -150 -200) (150 150 250)
Relative tolerance         : 1e-06
Absolute matching distance : 0.000618466

Reading refinement surfaces.
Read refinement surfaces in = 0 s

Reading refinement shells.
Refinement level 2 for all cells inside MRF
Read refinement shells in = 0 s

Setting refinement level of surface to be consistent with shells.
For geometry GeoTank detected 0 uncached triangles out of 3478
For geometry GeoShaft detected 0 uncached triangles out of 4322
Checked shell refinement in = 0.02 s

Reading features.
Read edgeMesh GeoTank_s.eMesh
    points      : 30
    edges       : 30
    boundingBox : (-16.3755 -16.2844 -175.461) (16.3755 16.0958 157.795)

Refinement level according to distance to "GeoTank_s.eMesh" (30 points, 30 edges).
    level 2 for all cells within 0 metre.
Read edgeMesh GeoShaft_s.eMesh
    points      : 825
    edges       : 777
    boundingBox : (-50.0099 -50.0151 -84.4602) (50.0091 50.0208 215.54)

Refinement level according to distance to "GeoShaft_s.eMesh" (825 points, 777 edges).
    level 4 for all cells within 0 metre.
Read features in = 0 s


Determining initial surface intersections
-----------------------------------------

Edge intersection testing:
    Number of edges             : 201728
    Number of edges to retest   : 0
    Number of intersected edges : 0
Edge intersection testing:
    Number of edges             : 201728
    Number of edges to retest   : 201728
    Number of intersected edges : 5825
Calculated surface intersections in = 0.05 s

Initial mesh : cells:65536  faces:201728  points:70785
Cells per refinement level:
    0	65536

Adding patches for surface regions
----------------------------------

Patch Type                Region                        
----- ----                ------                        
MRF:

2     wall                MRF                           
3     wall                MRF_slave                     

GeoTank:

4     wall                GeoTank                       

GeoShaft:

5     wall                GeoShaft                      

Added patches in = 0.02 s

Edge intersection testing:
    Number of edges             : 201728
    Number of edges to retest   : 0
    Number of intersected edges : 5825
Decomposition method hierarchical [4]

Refinement phase
----------------

Found point (20 20 20) in cell 7970 on processor 3

Feature refinement iteration 0
------------------------------

Marked for refinement due to explicit features             : 396 cells.
Determined cells to refine in = 0.12 s
Selected for feature refinement : 396 cells (out of 65536)
Edge intersection testing:
    Number of edges             : 211973
    Number of edges to retest   : 15092
    Number of intersected edges : 8355
Refined mesh in = 0.07 s
After refinement feature refinement iteration 0 : cells:68308  faces:211973  points:75657
Cells per refinement level:
    0	65140
    1	3168
Skipping balancing since max unbalance 0.00286936 is less than allowable 0.1

Feature refinement iteration 1
------------------------------

Marked for refinement due to explicit features             : 963 cells.
Determined cells to refine in = 0.12 s
Selected for feature refinement : 1409 cells (out of 68308)
Edge intersection testing:
    Number of edges             : 247241
    Number of edges to retest   : 51925
    Number of intersected edges : 15369
Refined mesh in = 0.1 s
After refinement feature refinement iteration 1 : cells:78171  faces:247241  points:91875
Cells per refinement level:
    0	64694
    1	5773
    2	7704
Skipping balancing since max unbalance 0.0104391 is less than allowable 0.1

Feature refinement iteration 2
------------------------------

Marked for refinement due to explicit features             : 2288 cells.
Determined cells to refine in = 0.12 s
Selected for feature refinement : 3768 cells (out of 78171)
Edge intersection testing:
    Number of edges             : 340589
    Number of edges to retest   : 139335
    Number of intersected edges : 32461
Refined mesh in = 0.14 s
After refinement feature refinement iteration 2 : cells:104547  faces:340589  points:133563
Cells per refinement level:
    0	64406
    1	6885
    2	14952
    3	18304
Skipping balancing since max unbalance 0.0214646 is less than allowable 0.1

Feature refinement iteration 3
------------------------------

Marked for refinement due to explicit features             : 5070 cells.
Determined cells to refine in = 0.16 s
Selected for feature refinement : 8651 cells (out of 104547)
Edge intersection testing:
    Number of edges             : 557825
    Number of edges to retest   : 339052
    Number of intersected edges : 69534
Refined mesh in = 0.24 s
After refinement feature refinement iteration 3 : cells:165104  faces:557825  points:233304
Cells per refinement level:
    0	64283
    1	7104
    2	18379
    3	34778
    4	40560
Skipping balancing since max unbalance 0.0342572 is less than allowable 0.1

Feature refinement iteration 4
------------------------------

Marked for refinement due to explicit features             : 0 cells.
Determined cells to refine in = 0.29 s
Selected for feature refinement : 0 cells (out of 165104)
Stopping refining since too few cells selected.


Surface refinement iteration 0
------------------------------

Marked for refinement due to surface intersection          : 11409 cells.
Determined cells to refine in = 0.01 s
Selected for refinement : 11777 cells (out of 165104)
Edge intersection testing:
    Number of edges             : 826715
    Number of edges to retest   : 427248
    Number of intersected edges : 99782
Refined mesh in = 0.38 s
After refinement surface refinement iteration 0 : cells:247543  faces:826715  points:336530
Cells per refinement level:
    0	58265
    1	53201
    2	31043
    3	64474
    4	40560
Skipping balancing since max unbalance 0.0270179 is less than allowable 0.1

Surface refinement iteration 1
------------------------------

Marked for refinement due to surface intersection          : 25149 cells.
Determined cells to refine in = 0.04 s
Selected for refinement : 27979 cells (out of 247543)
Edge intersection testing:
    Number of edges             : 1473875
    Number of edges to retest   : 895430
    Number of intersected edges : 162326
Refined mesh in = 0.67 s
After refinement surface refinement iteration 1 : cells:443396  faces:1473875  points:591494
Cells per refinement level:
    0	55335
    1	52862
    2	220005
    3	74634
    4	40560
Skipping balancing since max unbalance 0.0177449 is less than allowable 0.1

Surface refinement iteration 2
------------------------------

Marked for refinement due to surface intersection          : 3966 cells.
Determined cells to refine in = 0.07 s
Selected for refinement : 4232 cells (out of 443396)
Skipping balancing since max unbalance 0.0174623 is less than allowable 0.1
After balancing surface refinement iteration 2 : cells:443396  faces:1473875  points:591494
Cells per refinement level:
    0	55335
    1	52862
    2	220005
    3	74634
    4	40560
Edge intersection testing:
    Number of edges             : 1568177
    Number of edges to retest   : 168313
    Number of intersected edges : 168003
Refined mesh in = 0.61 s
After refinement surface refinement iteration 2 : cells:473020  faces:1568177  points:626505
Cells per refinement level:
    0	55299
    1	52311
    2	223360
    3	101490
    4	40560

Surface refinement iteration 3
------------------------------

Marked for refinement due to surface intersection          : 0 cells.
Determined cells to refine in = 0.05 s
Selected for refinement : 0 cells (out of 473020)
Stopping refining since too few cells selected.


Removing mesh beyond surface intersections
------------------------------------------

Setting cellZones according to locationsInMesh:
Location : (20 20 20)
    cellZone : none

For cellZone none found point (20 20 20) in global region 1 out of 5 regions.
Found 1 closed, named surfaces. Assigning cells in/outside these surfaces to the corresponding cellZone.

Walking from known cellZones; crossing a faceZone face changes cellZone

--> FOAM Warning : 
    From void Foam::meshRefinement::nearestFace(const labelUList&, const Foam::bitSet&, Foam::autoPtr<Foam::mapDistribute>&, Foam::labelList&, Foam::label) const
    in file meshRefinement/meshRefinement.C at line 517
    Did not visit some faces, e.g. face 0 at (-140.625 -145.312 -196.484)
Keeping all cells containing inside points
Selected for keeping : 378605 cells.
Edge intersection testing:
    Number of edges             : 1290484
    Number of edges to retest   : 73796
    Number of intersected edges : 167822

Shell refinement iteration 0
----------------------------

Marked for refinement due to distance to explicit features : 0 cells.
Marked for refinement due to refinement shells             : 7446 cells.
Determined cells to refine in = 0.74 s
Selected for internal refinement : 40186 cells (out of 378605)
Edge intersection testing:
    Number of edges             : 2156005
    Number of edges to retest   : 1760268
    Number of intersected edges : 199944
Refined mesh in = 1.22 s
After refinement shell refinement iteration 0 : cells:659907  faces:2156005  points:837866
Cells per refinement level:
    0	4771
    1	31277
    2	334858
    3	130185
    4	158816
Skipping balancing since max unbalance 0.0231791 is less than allowable 0.1

Shell refinement iteration 1
----------------------------

Marked for refinement due to distance to explicit features : 0 cells.
Marked for refinement due to refinement shells             : 4504 cells.
Determined cells to refine in = 0.24 s
Selected for internal refinement : 13506 cells (out of 659907)
Skipping balancing since max unbalance 0.0238147 is less than allowable 0.1
After balancing shell refinement iteration 1 : cells:659907  faces:2156005  points:837866
Cells per refinement level:
    0	4771
    1	31277
    2	334858
    3	130185
    4	158816
Edge intersection testing:
    Number of edges             : 2439223
    Number of edges to retest   : 824788
    Number of intersected edges : 208645
Refined mesh in = 1.17 s
After refinement shell refinement iteration 1 : cells:754449  faces:2439223  points:932058
Cells per refinement level:
    0	3868
    1	33892
    2	369719
    3	140290
    4	206680

Shell refinement iteration 2
----------------------------

Marked for refinement due to distance to explicit features : 0 cells.
Marked for refinement due to refinement shells             : 0 cells.
Determined cells to refine in = 0.22 s
Selected for internal refinement : 1724 cells (out of 754449)
Skipping balancing since max unbalance 0.0254489 is less than allowable 0.1
After balancing shell refinement iteration 2 : cells:754449  faces:2439223  points:932058
Cells per refinement level:
    0	3868
    1	33892
    2	369719
    3	140290
    4	206680
Edge intersection testing:
    Number of edges             : 2476864
    Number of edges to retest   : 140448
    Number of intersected edges : 210348
Refined mesh in = 1.07 s
After refinement shell refinement iteration 2 : cells:766517  faces:2476864  points:945581
Cells per refinement level:
    0	3855
    1	33969
    2	369328
    3	144069
    4	215296

Shell refinement iteration 3
----------------------------

Marked for refinement due to distance to explicit features : 0 cells.
Marked for refinement due to refinement shells             : 0 cells.
Determined cells to refine in = 0.26 s
Selected for internal refinement : 250 cells (out of 766517)
Skipping balancing since max unbalance 0.0253336 is less than allowable 0.1
After balancing shell refinement iteration 3 : cells:766517  faces:2476864  points:945581
Cells per refinement level:
    0	3855
    1	33969
    2	369328
    3	144069
    4	215296
Edge intersection testing:
    Number of edges             : 2482297
    Number of edges to retest   : 20130
    Number of intersected edges : 210544
Refined mesh in = 0.95 s
After refinement shell refinement iteration 3 : cells:768267  faces:2482297  points:947521
Cells per refinement level:
    0	3853
    1	33936
    2	369688
    3	144158
    4	216632

Shell refinement iteration 4
----------------------------

Marked for refinement due to distance to explicit features : 0 cells.
Marked for refinement due to refinement shells             : 0 cells.
Determined cells to refine in = 0.25 s
Selected for internal refinement : 33 cells (out of 768267)
Skipping balancing since max unbalance 0.025408 is less than allowable 0.1
After balancing shell refinement iteration 4 : cells:768267  faces:2482297  points:947521
Cells per refinement level:
    0	3853
    1	33936
    2	369688
    3	144158
    4	216632
Edge intersection testing:
    Number of edges             : 2483020
    Number of edges to retest   : 2831
    Number of intersected edges : 210566
Refined mesh in = 0.93 s
After refinement shell refinement iteration 4 : cells:768498  faces:2483020  points:947781
Cells per refinement level:
    0	3853
    1	33936
    2	369677
    3	144224
    4	216808

Shell refinement iteration 5
----------------------------

Marked for refinement due to distance to explicit features : 0 cells.
Marked for refinement due to refinement shells             : 0 cells.
Determined cells to refine in = 0.22 s
Selected for internal refinement : 2 cells (out of 768498)
Stopping refining since too few cells selected.


Dangling coarse cells refinement iteration 0
--------------------------------------------

Determined cells to refine in = 0.01 s
Selected for refinement : 93 cells (out of 768498)
Skipping balancing since max unbalance 0.0252864 is less than allowable 0.1
After balancing coarse cell refinement iteration 0 : cells:768498  faces:2483020  points:947781
Cells per refinement level:
    0	3853
    1	33936
    2	369677
    3	144224
    4	216808
Edge intersection testing:
    Number of edges             : 2484412
    Number of edges to retest   : 11086
    Number of intersected edges : 210566
Refined mesh in = 0.86 s
After refinement coarse cell refinement iteration 0 : cells:769149  faces:2484412  points:947966
Cells per refinement level:
    0	3816
    1	34183
    2	370062
    3	144280
    4	216808

Dangling coarse cells refinement iteration 1
--------------------------------------------

Determined cells to refine in = 0.04 s
Selected for refinement : 8 cells (out of 769149)
Stopping refining since too few cells selected.


Dangling coarse cells refinement iteration 0
--------------------------------------------

Determined cells to refine in = 0.01 s
Selected for refinement : 14 cells (out of 769149)
Skipping balancing since max unbalance 0.0253014 is less than allowable 0.1
After balancing coarse cell refinement iteration 0 : cells:769149  faces:2484412  points:947966
Cells per refinement level:
    0	3816
    1	34183
    2	370062
    3	144280
    4	216808
Edge intersection testing:
    Number of edges             : 2484580
    Number of edges to retest   : 1760
    Number of intersected edges : 210566
Refined mesh in = 0.89 s
After refinement coarse cell refinement iteration 0 : cells:769247  faces:2484580  points:947980
Cells per refinement level:
    0	3802
    1	34295
    2	370062
    3	144280
    4	216808

Dangling coarse cells refinement iteration 1
--------------------------------------------

Determined cells to refine in = 0.04 s
Selected for refinement : 0 cells (out of 769247)
Stopping refining since too few cells selected.


Refinement transition refinement iteration 0
--------------------------------------------

Determined cells to refine in = 0.02 s
Selected for refinement : 308 cells (out of 769247)
Skipping balancing since max unbalance 0.0249766 is less than allowable 0.1
After balancing interface cell refinement iteration 0 : cells:769247  faces:2484580  points:947980
Cells per refinement level:
    0	3802
    1	34295
    2	370062
    3	144280
    4	216808
Edge intersection testing:
    Number of edges             : 2492395
    Number of edges to retest   : 26591
    Number of intersected edges : 212048
Refined mesh in = 0.97 s
After refinement interface cell refinement iteration 0 : cells:771403  faces:2492395  points:951622
Cells per refinement level:
    0	3802
    1	34295
    2	370027
    3	144287
    4	218992

Refinement transition refinement iteration 1
--------------------------------------------

Determined cells to refine in = 0.07 s
Selected for refinement : 18 cells (out of 771403)
Skipping balancing since max unbalance 0.0249181 is less than allowable 0.1
After balancing interface cell refinement iteration 1 : cells:771403  faces:2492395  points:951622
Cells per refinement level:
    0	3802
    1	34295
    2	370027
    3	144287
    4	218992
Edge intersection testing:
    Number of edges             : 2492836
    Number of edges to retest   : 1492
    Number of intersected edges : 212093
Refined mesh in = 0.93 s
After refinement interface cell refinement iteration 1 : cells:771529  faces:2492836  points:951814
Cells per refinement level:
    0	3802
    1	34295
    2	370025
    3	144287
    4	219120

Refinement transition refinement iteration 2
--------------------------------------------

Determined cells to refine in = 0.08 s
Selected for refinement : 10 cells (out of 771529)
Stopping refining since too few cells selected.


Splitting mesh at surface intersections
---------------------------------------

Introducing baffles for 212093 faces that are intersected by the surface.

Setting cellZones according to locationsInMesh:
Location : (20 20 20)
    cellZone : none

For cellZone none found point (20 20 20) in global region 0 out of 4 regions.
Found 1 closed, named surfaces. Assigning cells in/outside these surfaces to the corresponding cellZone.

Walking from known cellZones; crossing a faceZone face changes cellZone

Edge intersection testing:
    Number of edges             : 2655204
    Number of edges to retest   : 850847
    Number of intersected edges : 371198
Created baffles in = 1.07 s


After introducing baffles : cells:771529  faces:2655204  points:951937
Cells per refinement level:
    0	3802
    1	34295
    2	370025
    3	144287
    4	219120

Introducing baffles to block off problem cells
----------------------------------------------

markFacesOnProblemCells : marked 145941 additional internal faces to be converted into baffles.
Analyzed problem cells in = 0.64 s


Introducing baffles to delete problem cells.

Edge intersection testing:
    Number of edges             : 2801145
    Number of edges to retest   : 532039
    Number of intersected edges : 371328
Created baffles in = 0.81 s


After introducing baffles : cells:771529  faces:2801145  points:954708
Cells per refinement level:
    0	3802
    1	34295
    2	370025
    3	144287
    4	219120
Setting cellZones according to locationsInMesh:
Location : (20 20 20)
    cellZone : none

For cellZone none found point (20 20 20) in global region 0 out of 66352 regions.
Found 1 closed, named surfaces. Assigning cells in/outside these surfaces to the corresponding cellZone.

Walking from known cellZones; crossing a faceZone face changes cellZone

Edge intersection testing:
    Number of edges             : 2801145
    Number of edges to retest   : 907707
    Number of intersected edges : 371328

Remove unreachable sections of mesh
-----------------------------------

Keeping all cells containing points 1((20 20 20))
Selected for keeping : 604327 cells.
Edge intersection testing:
    Number of edges             : 2011255
    Number of edges to retest   : 0
    Number of intersected edges : 208444
Split mesh in = 1.95 s


After subsetting : cells:604327  faces:2011255  points:803905
Cells per refinement level:
    0	3802
    1	34258
    2	281869
    3	121234
    4	163164

Introducing zones for interfaces
--------------------------------

Setting cellZones according to named surfaces:
Surface : MRF
    faceZones : 1(faceMRFzone)
    cellZone  : cellMRFzone

Setting cellZones according to locationsInMesh:
Location : (20 20 20)
    cellZone : none

For cellZone none found point (20 20 20) in global region 0 out of 1 regions.
Found 1 closed, named surfaces. Assigning cells in/outside these surfaces to the corresponding cellZone.

Walking from known cellZones; crossing a faceZone face changes cellZone

Only keeping zone faces inbetween different cellZones.

Setting faceZones according to neighbouring cellZones:

CellZones:
    cellMRFzone	size:335555

FaceZones:
    faceMRFzone	size:49464

Edge intersection testing:
    Number of edges             : 2011255
    Number of edges to retest   : 0
    Number of intersected edges : 208444

Handling cells with snap problems
---------------------------------

Introducing baffles for 208444 faces that are intersected by the surface.

Setting cellZones according to locationsInMesh:
Location : (20 20 20)
    cellZone : none

For cellZone none found point (20 20 20) in global region 0 out of 1 regions.
Found 1 closed, named surfaces. Assigning cells in/outside these surfaces to the corresponding cellZone.

Walking from known cellZones; crossing a faceZone face changes cellZone

Edge intersection testing:
    Number of edges             : 2011255
    Number of edges to retest   : 430727
    Number of intersected edges : 208444
Created baffles in = 1.63 s


After introducing baffles : cells:604327  faces:2011255  points:803905
Cells per refinement level:
    0	3802
    1	34258
    2	281869
    3	121234
    4	163164

Introducing baffles to block off problem cells
----------------------------------------------

markFacesOnProblemCells : marked 0 additional internal faces to be converted into baffles.
Analyzed problem cells in = 0.49 s


Introducing baffles to delete problem cells.

Created baffles in = 0.04 s


After introducing baffles : cells:604327  faces:2011255  points:803905
Cells per refinement level:
    0	3802
    1	34258
    2	281869
    3	121234
    4	163164
Setting cellZones according to locationsInMesh:
Location : (20 20 20)
    cellZone : none

For cellZone none found point (20 20 20) in global region 0 out of 1 regions.
Found 1 closed, named surfaces. Assigning cells in/outside these surfaces to the corresponding cellZone.

Walking from known cellZones; crossing a faceZone face changes cellZone

Edge intersection testing:
    Number of edges             : 2011255
    Number of edges to retest   : 430727
    Number of intersected edges : 208444

Remove unreachable sections of mesh
-----------------------------------

Split mesh in = 0.91 s


After subsetting : cells:604327  faces:2011255  points:803905
Cells per refinement level:
    0	3802
    1	34258
    2	281869
    3	121234
    4	163164

Merge free-standing baffles
---------------------------

freeStandingBaffles : detected 1043 free-standing baffles out of 1043

freeStandingBaffles : detected 5 planar (within 30 degrees) free-standing baffles out of 1043

Detected free-standing baffles : 5
Edge intersection testing:
    Number of edges             : 2011250
    Number of edges to retest   : 5
    Number of intersected edges : 208439

Introducing baffles to block off problem cells
----------------------------------------------

markFacesOnProblemCells : marked 0 additional internal faces to be converted into baffles.
Analyzed problem cells in = 1.25 s


Introducing baffles to delete problem cells.

Created baffles in = 0.04 s


After introducing baffles : cells:604327  faces:2011250  points:803905
Cells per refinement level:
    0	3802
    1	34258
    2	281869
    3	121234
    4	163164

Remove unreachable sections of mesh
-----------------------------------

Merged free-standing baffles in = 0.13 s


dupNonManifoldPoints : Found : 1197 non-manifold points (out of 825170)
Edge intersection testing:
    Number of edges             : 2011250
    Number of edges to retest   : 0
    Number of intersected edges : 208439
Detected unsplittable baffles : 0

Merge refined boundary faces
----------------------------

Merging 930 sets of faces.

Edge intersection testing:
    Number of edges             : 2009878
    Number of edges to retest   : 8233
    Number of intersected edges : 207064

Undo iteration 0
----------------
Checking faces in error :
    non-orthogonality > 65  degrees                        : 0
    faces with face pyramid volume < 1e-13                 : 0
    faces with face-decomposition tet quality < 1e-30      : 0
    faces with skewness > 20  (internal) or 20  (boundary) : 0
    faces with interpolation weights (0..1)  < 0.001       : 0
    faces with volume ratio of neighbour cells < 0.05      : 0
    faces with face twist < 0.02                           : 0
    faces on cells with determinant < 0.001                : 0

Merging all points on surface that
- are used by only two boundary faces and
- make an angle with a cosine of more than 0.707107.

Removing 1343 straight edge points ...

Edge intersection testing:
    Number of edges             : 2009878
    Number of edges to retest   : 9739
    Number of intersected edges : 207064

Undo iteration 0
----------------
Checking faces in error :
    non-orthogonality > 65  degrees                        : 0
    faces with face pyramid volume < 1e-13                 : 0
    faces with face-decomposition tet quality < 1e-30      : 0
    faces with skewness > 20  (internal) or 20  (boundary) : 0
    faces with interpolation weights (0..1)  < 0.001       : 0
    faces with volume ratio of neighbour cells < 0.05      : 0
    faces with face twist < 0.02                           : 0
    faces on cells with determinant < 0.001                : 0

Doing final balancing
---------------------

Found 49464 zoned faces to keep together.
Found 0 separated coupled faces to keep together.
Refined mesh : cells:604327  faces:2009878  points:803538
Cells per refinement level:
    0	3802
    1	34258
    2	281869
    3	121234
    4	163164
Writing mesh to time constant
Wrote mesh in = 5.41 s.
Mesh refined in = 28.75 s.

Morphing phase
--------------

Converting zoned faces into baffles ...

FaceZone                      FaceType  nBaffles  
--------                      --------  --------  
faceMRFzone                   internal  49436     

Edge intersection testing:
    Number of edges             : 2059314
    Number of edges to retest   : 310126
    Number of intersected edges : 252436
Created 49436 baffles in = 0.58 s


Duplicating 0 points on faceZones of type boundary
Snapping to features in 10 iterations ...
Constructing mesh displacer ...
Using mesh parameters 
{
    maxNonOrtho     65;
    maxBoundarySkewness 20;
    maxInternalSkewness 20;
    maxConcave      180;
    minVol          1e-13;
    minTetQuality   1e-30;
    minArea         -1;
    minTwist        0.02;
    minDeterminant  0.001;
    minFaceWeight   0.001;
    minVolRatio     0.05;
    minTriangleTwist -1;
    nSmoothScale    4;
    errorReduction  0.75;
    relaxed
    {
        maxNonOrtho     75;
    }
}


Checking initial mesh ...
Checking faces in error :
    non-orthogonality > 65  degrees                        : 0
    faces with face pyramid volume < 1e-13                 : 0
    faces with face-decomposition tet quality < 1e-30      : 0
    faces with skewness > 20  (internal) or 20  (boundary) : 0
    faces with interpolation weights (0..1)  < 0.001       : 0
    faces with volume ratio of neighbour cells < 0.05      : 0
    faces with face twist < 0.02                           : 0
    faces on cells with determinant < 0.001                : 0
Detected 0 illegal faces (concave, zero area or negative cell pyramid volume)
Checked initial mesh in = 0.66 s


Smoothing patch points ...
Smoothing iteration 0
Found 2412 non-manifold point(s).

Scaling iteration 0
Moving mesh using displacement scaling : min:1  max:1
Checking faces in error :
    non-orthogonality > 65  degrees                        : 0
    faces with face pyramid volume < 1e-13                 : 0
    faces with face-decomposition tet quality < 1e-30      : 0
    faces with skewness > 20  (internal) or 20  (boundary) : 0
    faces with interpolation weights (0..1)  < 0.001       : 0
    faces with volume ratio of neighbour cells < 0.05      : 4
    faces with face twist < 0.02                           : 0
    faces on cells with determinant < 0.001                : 0

Scaling iteration 1
Moving mesh using displacement scaling : min:0.75  max:1
Checking faces in error :
    non-orthogonality > 65  degrees                        : 0
    faces with face pyramid volume < 1e-13                 : 0
    faces with face-decomposition tet quality < 1e-30      : 0
    faces with skewness > 20  (internal) or 20  (boundary) : 0
    faces with interpolation weights (0..1)  < 0.001       : 0
    faces with volume ratio of neighbour cells < 0.05      : 0
    faces with face twist < 0.02                           : 0
    faces on cells with determinant < 0.001                : 0
Successfully moved mesh

Smoothing iteration 1
Found 0 non-manifold point(s).

Scaling iteration 0
Moving mesh using displacement scaling : min:1  max:1
Checking faces in error :
    non-orthogonality > 65  degrees                        : 0
    faces with face pyramid volume < 1e-13                 : 0
    faces with face-decomposition tet quality < 1e-30      : 0
    faces with skewness > 20  (internal) or 20  (boundary) : 0
    faces with interpolation weights (0..1)  < 0.001       : 0
    faces with volume ratio of neighbour cells < 0.05      : 82
    faces with face twist < 0.02                           : 0
    faces on cells with determinant < 0.001                : 0

Scaling iteration 1
Moving mesh using displacement scaling : min:0.75  max:1
Checking faces in error :
    non-orthogonality > 65  degrees                        : 0
    faces with face pyramid volume < 1e-13                 : 0
    faces with face-decomposition tet quality < 1e-30      : 0
    faces with skewness > 20  (internal) or 20  (boundary) : 0
    faces with interpolation weights (0..1)  < 0.001       : 0
    faces with volume ratio of neighbour cells < 0.05      : 42
    faces with face twist < 0.02                           : 0
    faces on cells with determinant < 0.001                : 0

Scaling iteration 2
Moving mesh using displacement scaling : min:0.5625  max:1
Checking faces in error :
    non-orthogonality > 65  degrees                        : 0
    faces with face pyramid volume < 1e-13                 : 0
    faces with face-decomposition tet quality < 1e-30      : 0
    faces with skewness > 20  (internal) or 20  (boundary) : 0
    faces with interpolation weights (0..1)  < 0.001       : 0
    faces with volume ratio of neighbour cells < 0.05      : 17
    faces with face twist < 0.02                           : 0
    faces on cells with determinant < 0.001                : 0

Scaling iteration 3
Moving mesh using displacement scaling : min:0.421875  max:1
Checking faces in error :
    non-orthogonality > 65  degrees                        : 0
    faces with face pyramid volume < 1e-13                 : 0
    faces with face-decomposition tet quality < 1e-30      : 0
    faces with skewness > 20  (internal) or 20  (boundary) : 0
    faces with interpolation weights (0..1)  < 0.001       : 0
    faces with volume ratio of neighbour cells < 0.05      : 9
    faces with face twist < 0.02                           : 0
    faces on cells with determinant < 0.001                : 0

Scaling iteration 4
Moving mesh using displacement scaling : min:0.316406  max:1
Checking faces in error :
    non-orthogonality > 65  degrees                        : 0
    faces with face pyramid volume < 1e-13                 : 0
    faces with face-decomposition tet quality < 1e-30      : 0
    faces with skewness > 20  (internal) or 20  (boundary) : 0
    faces with interpolation weights (0..1)  < 0.001       : 0
    faces with volume ratio of neighbour cells < 0.05      : 4
    faces with face twist < 0.02                           : 0
    faces on cells with determinant < 0.001                : 0

Scaling iteration 5
Moving mesh using displacement scaling : min:0.237305  max:1
Checking faces in error :
    non-orthogonality > 65  degrees                        : 0
    faces with face pyramid volume < 1e-13                 : 0
    faces with face-decomposition tet quality < 1e-30      : 0
    faces with skewness > 20  (internal) or 20  (boundary) : 0
    faces with interpolation weights (0..1)  < 0.001       : 0
    faces with volume ratio of neighbour cells < 0.05      : 4
    faces with face twist < 0.02                           : 0
    faces on cells with determinant < 0.001                : 0

Scaling iteration 6
Moving mesh using displacement scaling : min:0.177979  max:1
Checking faces in error :
    non-orthogonality > 65  degrees                        : 0
    faces with face pyramid volume < 1e-13                 : 0
    faces with face-decomposition tet quality < 1e-30      : 0
    faces with skewness > 20  (internal) or 20  (boundary) : 0
    faces with interpolation weights (0..1)  < 0.001       : 0
    faces with volume ratio of neighbour cells < 0.05      : 3
    faces with face twist < 0.02                           : 0
    faces on cells with determinant < 0.001                : 0

Scaling iteration 7
Moving mesh using displacement scaling : min:0.133484  max:1
Checking faces in error :
    non-orthogonality > 65  degrees                        : 0
    faces with face pyramid volume < 1e-13                 : 0
    faces with face-decomposition tet quality < 1e-30      : 0
    faces with skewness > 20  (internal) or 20  (boundary) : 0
    faces with interpolation weights (0..1)  < 0.001       : 0
    faces with volume ratio of neighbour cells < 0.05      : 3
    faces with face twist < 0.02                           : 0
    faces on cells with determinant < 0.001                : 0

Scaling iteration 8
Moving mesh using displacement scaling : min:0.100113  max:1
Checking faces in error :
    non-orthogonality > 65  degrees                        : 0
    faces with face pyramid volume < 1e-13                 : 0
    faces with face-decomposition tet quality < 1e-30      : 0
    faces with skewness > 20  (internal) or 20  (boundary) : 0
    faces with interpolation weights (0..1)  < 0.001       : 0
    faces with volume ratio of neighbour cells < 0.05      : 3
    faces with face twist < 0.02                           : 0
    faces on cells with determinant < 0.001                : 0

Scaling iteration 9
Moving mesh using displacement scaling : min:0.0750847  max:1
Checking faces in error :
    non-orthogonality > 65  degrees                        : 0
    faces with face pyramid volume < 1e-13                 : 0
    faces with face-decomposition tet quality < 1e-30      : 0
    faces with skewness > 20  (internal) or 20  (boundary) : 0
    faces with interpolation weights (0..1)  < 0.001       : 0
    faces with volume ratio of neighbour cells < 0.05      : 3
    faces with face twist < 0.02                           : 0
    faces on cells with determinant < 0.001                : 0

Scaling iteration 10
Displacement scaling for error reduction set to 0.
Moving mesh using displacement scaling : min:0.0563135  max:1
Checking faces in error :
    non-orthogonality > 65  degrees                        : 0
    faces with face pyramid volume < 1e-13                 : 0
    faces with face-decomposition tet quality < 1e-30      : 0
    faces with skewness > 20  (internal) or 20  (boundary) : 0
    faces with interpolation weights (0..1)  < 0.001       : 0
    faces with volume ratio of neighbour cells < 0.05      : 3
    faces with face twist < 0.02                           : 0
    faces on cells with determinant < 0.001                : 0

Scaling iteration 11
Moving mesh using displacement scaling : min:0  max:1
Checking faces in error :
    non-orthogonality > 65  degrees                        : 0
    faces with face pyramid volume < 1e-13                 : 0
    faces with face-decomposition tet quality < 1e-30      : 0
    faces with skewness > 20  (internal) or 20  (boundary) : 0
    faces with interpolation weights (0..1)  < 0.001       : 0
    faces with volume ratio of neighbour cells < 0.05      : 0
    faces with face twist < 0.02                           : 0
    faces on cells with determinant < 0.001                : 0
Successfully moved mesh

Smoothing iteration 2
Found 0 non-manifold point(s).

Scaling iteration 0
Moving mesh using displacement scaling : min:1  max:1
Checking faces in error :
    non-orthogonality > 65  degrees                        : 0
    faces with face pyramid volume < 1e-13                 : 0
    faces with face-decomposition tet quality < 1e-30      : 0
    faces with skewness > 20  (internal) or 20  (boundary) : 0
    faces with interpolation weights (0..1)  < 0.001       : 0
    faces with volume ratio of neighbour cells < 0.05      : 368
    faces with face twist < 0.02                           : 0
    faces on cells with determinant < 0.001                : 0

Scaling iteration 1
Moving mesh using displacement scaling : min:0.75  max:1
Checking faces in error :
    non-orthogonality > 65  degrees                        : 0
    faces with face pyramid volume < 1e-13                 : 0
    faces with face-decomposition tet quality < 1e-30      : 0
    faces with skewness > 20  (internal) or 20  (boundary) : 0
    faces with interpolation weights (0..1)  < 0.001       : 0
    faces with volume ratio of neighbour cells < 0.05      : 322
    faces with face twist < 0.02                           : 0
    faces on cells with determinant < 0.001                : 0

Scaling iteration 2
Moving mesh using displacement scaling : min:0.5625  max:1
Checking faces in error :
    non-orthogonality > 65  degrees                        : 0
    faces with face pyramid volume < 1e-13                 : 0
    faces with face-decomposition tet quality < 1e-30      : 0
    faces with skewness > 20  (internal) or 20  (boundary) : 0
    faces with interpolation weights (0..1)  < 0.001       : 0
    faces with volume ratio of neighbour cells < 0.05      : 285
    faces with face twist < 0.02                           : 0
    faces on cells with determinant < 0.001                : 0

Scaling iteration 3
Moving mesh using displacement scaling : min:0.421875  max:1
Checking faces in error :
    non-orthogonality > 65  degrees                        : 0
    faces with face pyramid volume < 1e-13                 : 0
    faces with face-decomposition tet quality < 1e-30      : 0
    faces with skewness > 20  (internal) or 20  (boundary) : 0
    faces with interpolation weights (0..1)  < 0.001       : 0
    faces with volume ratio of neighbour cells < 0.05      : 237
    faces with face twist < 0.02                           : 0
    faces on cells with determinant < 0.001                : 0

Scaling iteration 4
Moving mesh using displacement scaling : min:0.316406  max:1
Checking faces in error :
    non-orthogonality > 65  degrees                        : 0
    faces with face pyramid volume < 1e-13                 : 0
    faces with face-decomposition tet quality < 1e-30      : 0
    faces with skewness > 20  (internal) or 20  (boundary) : 0
    faces with interpolation weights (0..1)  < 0.001       : 0
    faces with volume ratio of neighbour cells < 0.05      : 193
    faces with face twist < 0.02                           : 0
    faces on cells with determinant < 0.001                : 0

Scaling iteration 5
Moving mesh using displacement scaling : min:0.237305  max:1
Checking faces in error :
    non-orthogonality > 65  degrees                        : 0
    faces with face pyramid volume < 1e-13                 : 0
    faces with face-decomposition tet quality < 1e-30      : 0
    faces with skewness > 20  (internal) or 20  (boundary) : 0
    faces with interpolation weights (0..1)  < 0.001       : 0
    faces with volume ratio of neighbour cells < 0.05      : 157
    faces with face twist < 0.02                           : 0
    faces on cells with determinant < 0.001                : 0

Scaling iteration 6
Moving mesh using displacement scaling : min:0.177979  max:1
Checking faces in error :
    non-orthogonality > 65  degrees                        : 0
    faces with face pyramid volume < 1e-13                 : 0
    faces with face-decomposition tet quality < 1e-30      : 0
    faces with skewness > 20  (internal) or 20  (boundary) : 0
    faces with interpolation weights (0..1)  < 0.001       : 0
    faces with volume ratio of neighbour cells < 0.05      : 147
    faces with face twist < 0.02                           : 0
    faces on cells with determinant < 0.001                : 0

Scaling iteration 7
Moving mesh using displacement scaling : min:0.133484  max:1
Checking faces in error :
    non-orthogonality > 65  degrees                        : 0
    faces with face pyramid volume < 1e-13                 : 0
    faces with face-decomposition tet quality < 1e-30      : 0
    faces with skewness > 20  (internal) or 20  (boundary) : 0
    faces with interpolation weights (0..1)  < 0.001       : 0
    faces with volume ratio of neighbour cells < 0.05      : 131
    faces with face twist < 0.02                           : 0
    faces on cells with determinant < 0.001                : 0

Scaling iteration 8
Moving mesh using displacement scaling : min:0.100113  max:1
Checking faces in error :
    non-orthogonality > 65  degrees                        : 0
    faces with face pyramid volume < 1e-13                 : 0
    faces with face-decomposition tet quality < 1e-30      : 0
    faces with skewness > 20  (internal) or 20  (boundary) : 0
    faces with interpolation weights (0..1)  < 0.001       : 0
    faces with volume ratio of neighbour cells < 0.05      : 123
    faces with face twist < 0.02                           : 0
    faces on cells with determinant < 0.001                : 0

Scaling iteration 9
Moving mesh using displacement scaling : min:0.0750847  max:1
Checking faces in error :
    non-orthogonality > 65  degrees                        : 0
    faces with face pyramid volume < 1e-13                 : 0
    faces with face-decomposition tet quality < 1e-30      : 0
    faces with skewness > 20  (internal) or 20  (boundary) : 0
    faces with interpolation weights (0..1)  < 0.001       : 0
    faces with volume ratio of neighbour cells < 0.05      : 102
    faces with face twist < 0.02                           : 0
    faces on cells with determinant < 0.001                : 0

Scaling iteration 10
Displacement scaling for error reduction set to 0.
Moving mesh using displacement scaling : min:0.0563135  max:1
Checking faces in error :
    non-orthogonality > 65  degrees                        : 0
    faces with face pyramid volume < 1e-13                 : 0
    faces with face-decomposition tet quality < 1e-30      : 0
    faces with skewness > 20  (internal) or 20  (boundary) : 0
    faces with interpolation weights (0..1)  < 0.001       : 0
    faces with volume ratio of neighbour cells < 0.05      : 95
    faces with face twist < 0.02                           : 0
    faces on cells with determinant < 0.001                : 0

Scaling iteration 11
Moving mesh using displacement scaling : min:0  max:1
Checking faces in error :
    non-orthogonality > 65  degrees                        : 0
    faces with face pyramid volume < 1e-13                 : 0
    faces with face-decomposition tet quality < 1e-30      : 0
    faces with skewness > 20  (internal) or 20  (boundary) : 0
    faces with interpolation weights (0..1)  < 0.001       : 0
    faces with volume ratio of neighbour cells < 0.05      : 14
    faces with face twist < 0.02                           : 0
    faces on cells with determinant < 0.001                : 0

Scaling iteration 12
Moving mesh using displacement scaling : min:0  max:1
Checking faces in error :
    non-orthogonality > 65  degrees                        : 0
    faces with face pyramid volume < 1e-13                 : 0
    faces with face-decomposition tet quality < 1e-30      : 0
    faces with skewness > 20  (internal) or 20  (boundary) : 0
    faces with interpolation weights (0..1)  < 0.001       : 0
    faces with volume ratio of neighbour cells < 0.05      : 14
    faces with face twist < 0.02                           : 0
    faces on cells with determinant < 0.001                : 0

Scaling iteration 13
Moving mesh using displacement scaling : min:0  max:1
Checking faces in error :
    non-orthogonality > 65  degrees                        : 0
    faces with face pyramid volume < 1e-13                 : 0
    faces with face-decomposition tet quality < 1e-30      : 0
    faces with skewness > 20  (internal) or 20  (boundary) : 0
    faces with interpolation weights (0..1)  < 0.001       : 0
    faces with volume ratio of neighbour cells < 0.05      : 14
    faces with face twist < 0.02                           : 0
    faces on cells with determinant < 0.001                : 0

Scaling iteration 14
Moving mesh using displacement scaling : min:0  max:1
Checking faces in error :
    non-orthogonality > 65  degrees                        : 0
    faces with face pyramid volume < 1e-13                 : 0
    faces with face-decomposition tet quality < 1e-30      : 0
    faces with skewness > 20  (internal) or 20  (boundary) : 0
    faces with interpolation weights (0..1)  < 0.001       : 0
    faces with volume ratio of neighbour cells < 0.05      : 14
    faces with face twist < 0.02                           : 0
    faces on cells with determinant < 0.001                : 0

Scaling iteration 15
Moving mesh using displacement scaling : min:0  max:1
Checking faces in error :
    non-orthogonality > 65  degrees                        : 0
    faces with face pyramid volume < 1e-13                 : 0
    faces with face-decomposition tet quality < 1e-30      : 0
    faces with skewness > 20  (internal) or 20  (boundary) : 0
    faces with interpolation weights (0..1)  < 0.001       : 0
    faces with volume ratio of neighbour cells < 0.05      : 14
    faces with face twist < 0.02                           : 0
    faces on cells with determinant < 0.001                : 0

Scaling iteration 16
Moving mesh using displacement scaling : min:0  max:1
Checking faces in error :
    non-orthogonality > 65  degrees                        : 0
    faces with face pyramid volume < 1e-13                 : 0
    faces with face-decomposition tet quality < 1e-30      : 0
    faces with skewness > 20  (internal) or 20  (boundary) : 0
    faces with interpolation weights (0..1)  < 0.001       : 0
    faces with volume ratio of neighbour cells < 0.05      : 14
    faces with face twist < 0.02                           : 0
    faces on cells with determinant < 0.001                : 0

Scaling iteration 17
Moving mesh using displacement scaling : min:0  max:1
Checking faces in error :
    non-orthogonality > 65  degrees                        : 0
    faces with face pyramid volume < 1e-13                 : 0
    faces with face-decomposition tet quality < 1e-30      : 0
    faces with skewness > 20  (internal) or 20  (boundary) : 0
    faces with interpolation weights (0..1)  < 0.001       : 0
    faces with volume ratio of neighbour cells < 0.05      : 14
    faces with face twist < 0.02                           : 0
    faces on cells with determinant < 0.001                : 0

Scaling iteration 18
Moving mesh using displacement scaling : min:0  max:1
Checking faces in error :
    non-orthogonality > 65  degrees                        : 0
    faces with face pyramid volume < 1e-13                 : 0
    faces with face-decomposition tet quality < 1e-30      : 0
    faces with skewness > 20  (internal) or 20  (boundary) : 0
    faces with interpolation weights (0..1)  < 0.001       : 0
    faces with volume ratio of neighbour cells < 0.05      : 14
    faces with face twist < 0.02                           : 0
    faces on cells with determinant < 0.001                : 0

Scaling iteration 19
Moving mesh using displacement scaling : min:0  max:1
Checking faces in error :
    non-orthogonality > 65  degrees                        : 0
    faces with face pyramid volume < 1e-13                 : 0
    faces with face-decomposition tet quality < 1e-30      : 0
    faces with skewness > 20  (internal) or 20  (boundary) : 0
    faces with interpolation weights (0..1)  < 0.001       : 0
    faces with volume ratio of neighbour cells < 0.05      : 14
    faces with face twist < 0.02                           : 0
    faces on cells with determinant < 0.001                : 0

Patch points smoothed in = 9.6 s



Morph iteration 0
-----------------
Calculating patchDisplacement as distance to nearest surface point ...
    non-zone points : attract to nearest of all non-zone surfaces
    zone points     : attract to zone surface only

Wanted displacement : average:0.206178 min:0 max:1.17103
Calculated surface displacement in = 0.05 s


Detecting near surfaces ...
Overriding nearest with intersection of close gaps at 0 out of 217109 points.
Overriding displacement on features :
   implicit features    : false
   explicit features    : true
   multi-patch features : false

Detected 77 baffle edges out of 425833 edges.
Baffle points     : 117 of which attracted to :
    feature point : 0
    feature edge  : 117
    rest          : 0

Initially selected 12359 mesh points out of 217109 for reverse attraction.
Selected 38689 mesh points out of 217109 for reverse attraction.
Stringing feature edges : changed 1236 points
Stringing feature edges : changed 40 points
Stringing feature edges : changed 15 points
Stringing feature edges : changed 12 points
Stringing feature edges : changed 15 points
Stringing feature edges : changed 7 points
Stringing feature edges : changed 5 points
Stringing feature edges : changed 5 points
Stringing feature edges : changed 6 points
Stringing feature edges : changed 3 points
Stringing feature edges : changed 3 points
Stringing feature edges : changed 3 points
Stringing feature edges : changed 5 points
Stringing feature edges : changed 4 points
Stringing feature edges : changed 2 points
Stringing feature edges : changed 1 points
Stringing feature edges : changed 1 points
Stringing feature edges : changed 2 points
Stringing feature edges : changed 0 points
Attraction:
    linear   : max:(-1.17098 -0.01057 0.00374584) avg:(0.000607509 0.000256452 -0.00245422)
    feature  : max:(-0.528752 0.529336 -1.05886) avg:(-2.16354e-05 -3.87403e-05 2.99816e-05)
Feature analysis : total master points :213361 of which attracted to :
    feature point   : 22
    feature edge    : 10244
    nearest surface : 0
    rest            : 203095

--> FOAM Warning : Displacement (-0.00526147 -0.00559725 -0.0302197) at mesh point 550 coord (-18.7529 -46.2483 -79.9356) points through the surrounding patch faces
Smoothing displacement ...
Iteration 0
Iteration 10
Iteration 20
Displacement smoothed in = 1.29 s


Moving mesh ...

Iteration 0
Moving mesh using displacement scaling : min:1  max:1
Checking faces in error :
    non-orthogonality > 65  degrees                        : 0
    faces with face pyramid volume < 1e-13                 : 0
    faces with face-decomposition tet quality < 1e-30      : 0
    faces with skewness > 20  (internal) or 20  (boundary) : 0
    faces with interpolation weights (0..1)  < 0.001       : 0
    faces with volume ratio of neighbour cells < 0.05      : 86
    faces with face twist < 0.02                           : 0
    faces on cells with determinant < 0.001                : 0

Iteration 1
Moving mesh using displacement scaling : min:0.75  max:1
Checking faces in error :
    non-orthogonality > 65  degrees                        : 0
    faces with face pyramid volume < 1e-13                 : 0
    faces with face-decomposition tet quality < 1e-30      : 0
    faces with skewness > 20  (internal) or 20  (boundary) : 0
    faces with interpolation weights (0..1)  < 0.001       : 0
    faces with volume ratio of neighbour cells < 0.05      : 19
    faces with face twist < 0.02                           : 0
    faces on cells with determinant < 0.001                : 0

Iteration 2
Moving mesh using displacement scaling : min:0.5625  max:1
Checking faces in error :
    non-orthogonality > 65  degrees                        : 0
    faces with face pyramid volume < 1e-13                 : 0
    faces with face-decomposition tet quality < 1e-30      : 0
    faces with skewness > 20  (internal) or 20  (boundary) : 0
    faces with interpolation weights (0..1)  < 0.001       : 0
    faces with volume ratio of neighbour cells < 0.05      : 15
    faces with face twist < 0.02                           : 0
    faces on cells with determinant < 0.001                : 0

Iteration 3
Moving mesh using displacement scaling : min:0.421875  max:1
Checking faces in error :
    non-orthogonality > 65  degrees                        : 0
    faces with face pyramid volume < 1e-13                 : 0
    faces with face-decomposition tet quality < 1e-30      : 0
    faces with skewness > 20  (internal) or 20  (boundary) : 0
    faces with interpolation weights (0..1)  < 0.001       : 0
    faces with volume ratio of neighbour cells < 0.05      : 14
    faces with face twist < 0.02                           : 0
    faces on cells with determinant < 0.001                : 0

Iteration 4
Moving mesh using displacement scaling : min:0.316406  max:1
Checking faces in error :
    non-orthogonality > 65  degrees                        : 0
    faces with face pyramid volume < 1e-13                 : 0
    faces with face-decomposition tet quality < 1e-30      : 0
    faces with skewness > 20  (internal) or 20  (boundary) : 0
    faces with interpolation weights (0..1)  < 0.001       : 0
    faces with volume ratio of neighbour cells < 0.05      : 14
    faces with face twist < 0.02                           : 0
    faces on cells with determinant < 0.001                : 0

Iteration 5
Moving mesh using displacement scaling : min:0.237305  max:1
Checking faces in error :
    non-orthogonality > 65  degrees                        : 0
    faces with face pyramid volume < 1e-13                 : 0
    faces with face-decomposition tet quality < 1e-30      : 0
    faces with skewness > 20  (internal) or 20  (boundary) : 0
    faces with interpolation weights (0..1)  < 0.001       : 0
    faces with volume ratio of neighbour cells < 0.05      : 14
    faces with face twist < 0.02                           : 0
    faces on cells with determinant < 0.001                : 0

Iteration 6
Moving mesh using displacement scaling : min:0.177979  max:1
Checking faces in error :
    non-orthogonality > 65  degrees                        : 0
    faces with face pyramid volume < 1e-13                 : 0
    faces with face-decomposition tet quality < 1e-30      : 0
    faces with skewness > 20  (internal) or 20  (boundary) : 0
    faces with interpolation weights (0..1)  < 0.001       : 0
    faces with volume ratio of neighbour cells < 0.05      : 14
    faces with face twist < 0.02                           : 0
    faces on cells with determinant < 0.001                : 0

Iteration 7
Moving mesh using displacement scaling : min:0.133484  max:1
Checking faces in error :
    non-orthogonality > 65  degrees                        : 0
    faces with face pyramid volume < 1e-13                 : 0
    faces with face-decomposition tet quality < 1e-30      : 0
    faces with skewness > 20  (internal) or 20  (boundary) : 0
    faces with interpolation weights (0..1)  < 0.001       : 0
    faces with volume ratio of neighbour cells < 0.05      : 14
    faces with face twist < 0.02                           : 0
    faces on cells with determinant < 0.001                : 0

Iteration 8
Moving mesh using displacement scaling : min:0.100113  max:1
Checking faces in error :
    non-orthogonality > 65  degrees                        : 0
    faces with face pyramid volume < 1e-13                 : 0
    faces with face-decomposition tet quality < 1e-30      : 0
    faces with skewness > 20  (internal) or 20  (boundary) : 0
    faces with interpolation weights (0..1)  < 0.001       : 0
    faces with volume ratio of neighbour cells < 0.05      : 14
    faces with face twist < 0.02                           : 0
    faces on cells with determinant < 0.001                : 0

Iteration 9
Moving mesh using displacement scaling : min:0.0750847  max:1
Checking faces in error :
    non-orthogonality > 65  degrees                        : 0
    faces with face pyramid volume < 1e-13                 : 0
    faces with face-decomposition tet quality < 1e-30      : 0
    faces with skewness > 20  (internal) or 20  (boundary) : 0
    faces with interpolation weights (0..1)  < 0.001       : 0
    faces with volume ratio of neighbour cells < 0.05      : 14
    faces with face twist < 0.02                           : 0
    faces on cells with determinant < 0.001                : 0

Iteration 10
Displacement scaling for error reduction set to 0.
Moving mesh using displacement scaling : min:0.0563135  max:1
Checking faces in error :
    non-orthogonality > 65  degrees                        : 0
    faces with face pyramid volume < 1e-13                 : 0
    faces with face-decomposition tet quality < 1e-30      : 0
    faces with skewness > 20  (internal) or 20  (boundary) : 0
    faces with interpolation weights (0..1)  < 0.001       : 0
    faces with volume ratio of neighbour cells < 0.05      : 14
    faces with face twist < 0.02                           : 0
    faces on cells with determinant < 0.001                : 0

Iteration 11
Moving mesh using displacement scaling : min:0  max:1
Checking faces in error :
    non-orthogonality > 65  degrees                        : 0
    faces with face pyramid volume < 1e-13                 : 0
    faces with face-decomposition tet quality < 1e-30      : 0
    faces with skewness > 20  (internal) or 20  (boundary) : 0
    faces with interpolation weights (0..1)  < 0.001       : 0
    faces with volume ratio of neighbour cells < 0.05      : 14
    faces with face twist < 0.02                           : 0
    faces on cells with determinant < 0.001                : 0

Iteration 12
Moving mesh using displacement scaling : min:0  max:1
Checking faces in error :
    non-orthogonality > 65  degrees                        : 0
    faces with face pyramid volume < 1e-13                 : 0
    faces with face-decomposition tet quality < 1e-30      : 0
    faces with skewness > 20  (internal) or 20  (boundary) : 0
    faces with interpolation weights (0..1)  < 0.001       : 0
    faces with volume ratio of neighbour cells < 0.05      : 14
    faces with face twist < 0.02                           : 0
    faces on cells with determinant < 0.001                : 0

Iteration 13
Moving mesh using displacement scaling : min:0  max:1
Checking faces in error :
    non-orthogonality > 65  degrees                        : 0
    faces with face pyramid volume < 1e-13                 : 0
    faces with face-decomposition tet quality < 1e-30      : 0
    faces with skewness > 20  (internal) or 20  (boundary) : 0
    faces with interpolation weights (0..1)  < 0.001       : 0
    faces with volume ratio of neighbour cells < 0.05      : 14
    faces with face twist < 0.02                           : 0
    faces on cells with determinant < 0.001                : 0

Iteration 14
Moving mesh using displacement scaling : min:0  max:1
Checking faces in error :
    non-orthogonality > 65  degrees                        : 0
    faces with face pyramid volume < 1e-13                 : 0
    faces with face-decomposition tet quality < 1e-30      : 0
    faces with skewness > 20  (internal) or 20  (boundary) : 0
    faces with interpolation weights (0..1)  < 0.001       : 0
    faces with volume ratio of neighbour cells < 0.05      : 14
    faces with face twist < 0.02                           : 0
    faces on cells with determinant < 0.001                : 0

Iteration 15
Moving mesh using displacement scaling : min:0  max:1
Checking faces in error :
    non-orthogonality > 65  degrees                        : 0
    faces with face pyramid volume < 1e-13                 : 0
    faces with face-decomposition tet quality < 1e-30      : 0
    faces with skewness > 20  (internal) or 20  (boundary) : 0
    faces with interpolation weights (0..1)  < 0.001       : 0
    faces with volume ratio of neighbour cells < 0.05      : 14
    faces with face twist < 0.02                           : 0
    faces on cells with determinant < 0.001                : 0

Iteration 16
Moving mesh using displacement scaling : min:0  max:1
Checking faces in error :
    non-orthogonality > 65  degrees                        : 0
    faces with face pyramid volume < 1e-13                 : 0
    faces with face-decomposition tet quality < 1e-30      : 0
    faces with skewness > 20  (internal) or 20  (boundary) : 0
    faces with interpolation weights (0..1)  < 0.001       : 0
    faces with volume ratio of neighbour cells < 0.05      : 14
    faces with face twist < 0.02                           : 0
    faces on cells with determinant < 0.001                : 0

Iteration 17
Moving mesh using displacement scaling : min:0  max:1
Checking faces in error :
    non-orthogonality > 65  degrees                        : 0
    faces with face pyramid volume < 1e-13                 : 0
    faces with face-decomposition tet quality < 1e-30      : 0
    faces with skewness > 20  (internal) or 20  (boundary) : 0
    faces with interpolation weights (0..1)  < 0.001       : 0
    faces with volume ratio of neighbour cells < 0.05      : 14
    faces with face twist < 0.02                           : 0
    faces on cells with determinant < 0.001                : 0

Iteration 18
Moving mesh using displacement scaling : min:0  max:1
Checking faces in error :
    non-orthogonality > 65  degrees                        : 0
    faces with face pyramid volume < 1e-13                 : 0
    faces with face-decomposition tet quality < 1e-30      : 0
    faces with skewness > 20  (internal) or 20  (boundary) : 0
    faces with interpolation weights (0..1)  < 0.001       : 0
    faces with volume ratio of neighbour cells < 0.05      : 14
    faces with face twist < 0.02                           : 0
    faces on cells with determinant < 0.001                : 0

Iteration 19
Moving mesh using displacement scaling : min:0  max:1
Checking faces in error :
    non-orthogonality > 65  degrees                        : 0
    faces with face pyramid volume < 1e-13                 : 0
    faces with face-decomposition tet quality < 1e-30      : 0
    faces with skewness > 20  (internal) or 20  (boundary) : 0
    faces with interpolation weights (0..1)  < 0.001       : 0
    faces with volume ratio of neighbour cells < 0.05      : 14
    faces with face twist < 0.02                           : 0
    faces on cells with determinant < 0.001                : 0
Moved mesh in = 4.94 s


--> FOAM Warning : 
    From void Foam::snappySnapDriver::doSnap(const Foam::dictionary&, const Foam::dictionary&, Foam::meshRefinement::FaceMergeType, Foam::scalar, Foam::scalar, const Foam::snapParameters&)
    in file snappyHexMeshDriver/snappySnapDriver.C at line 2912
    Did not successfully snap mesh. Continuing to snap to resolve easy
    surfaces but the resulting mesh will not satisfy your quality constraints


Morph iteration 1
-----------------
Calculating patchDisplacement as distance to nearest surface point ...
    non-zone points : attract to nearest of all non-zone surfaces
    zone points     : attract to zone surface only

Wanted displacement : average:0.192481 min:0 max:1.07891
Calculated surface displacement in = 0.05 s


Detecting near surfaces ...
Overriding nearest with intersection of close gaps at 0 out of 217109 points.
Overriding displacement on features :
   implicit features    : false
   explicit features    : true
   multi-patch features : false

Detected 63 baffle edges out of 425833 edges.
Baffle points     : 96 of which attracted to :
    feature point : 0
    feature edge  : 96
    rest          : 0

Initially selected 12349 mesh points out of 217109 for reverse attraction.
Selected 38670 mesh points out of 217109 for reverse attraction.
Stringing feature edges : changed 1215 points
Stringing feature edges : changed 44 points
Stringing feature edges : changed 20 points
Stringing feature edges : changed 10 points
Stringing feature edges : changed 15 points
Stringing feature edges : changed 7 points
Stringing feature edges : changed 5 points
Stringing feature edges : changed 5 points
Stringing feature edges : changed 6 points
Stringing feature edges : changed 3 points
Stringing feature edges : changed 5 points
Stringing feature edges : changed 4 points
Stringing feature edges : changed 5 points
Stringing feature edges : changed 2 points
Stringing feature edges : changed 3 points
Stringing feature edges : changed 2 points
Stringing feature edges : changed 2 points
Stringing feature edges : changed 0 points
Attraction:
    linear   : max:(1.05842 0.0345351 -0.20643) avg:(0.000547866 0.000243819 -0.00226632)
    feature  : max:(-0.84994 -0.835841 -0.447101) avg:(-2.41332e-05 -4.50058e-05 1.76569e-05)
Feature analysis : total master points :213361 of which attracted to :
    feature point   : 30
    feature edge    : 10246
    nearest surface : 0
    rest            : 203085

--> FOAM Warning : Displacement (-0.023062 -0.0154285 -0.0815491) at mesh point 550 coord (-18.7581 -46.2539 -79.9658) points through the surrounding patch faces
Smoothing displacement ...
Iteration 0
Iteration 10
Iteration 20
Displacement smoothed in = 1.32 s


Moving mesh ...

Iteration 0
Moving mesh using displacement scaling : min:1  max:1
Checking faces in error :
    non-orthogonality > 65  degrees                        : 0
    faces with face pyramid volume < 1e-13                 : 0
    faces with face-decomposition tet quality < 1e-30      : 0
    faces with skewness > 20  (internal) or 20  (boundary) : 0
    faces with interpolation weights (0..1)  < 0.001       : 0
    faces with volume ratio of neighbour cells < 0.05      : 218
    faces with face twist < 0.02                           : 0
    faces on cells with determinant < 0.001                : 0

Iteration 1
Moving mesh using displacement scaling : min:0.75  max:1
Checking faces in error :
    non-orthogonality > 65  degrees                        : 0
    faces with face pyramid volume < 1e-13                 : 0
    faces with face-decomposition tet quality < 1e-30      : 0
    faces with skewness > 20  (internal) or 20  (boundary) : 0
    faces with interpolation weights (0..1)  < 0.001       : 0
    faces with volume ratio of neighbour cells < 0.05      : 75
    faces with face twist < 0.02                           : 0
    faces on cells with determinant < 0.001                : 0

Iteration 2
Moving mesh using displacement scaling : min:0.5625  max:1
Checking faces in error :
    non-orthogonality > 65  degrees                        : 0
    faces with face pyramid volume < 1e-13                 : 0
    faces with face-decomposition tet quality < 1e-30      : 0
    faces with skewness > 20  (internal) or 20  (boundary) : 0
    faces with interpolation weights (0..1)  < 0.001       : 0
    faces with volume ratio of neighbour cells < 0.05      : 50
    faces with face twist < 0.02                           : 0
    faces on cells with determinant < 0.001                : 0

Iteration 3
Moving mesh using displacement scaling : min:0.421875  max:1
Checking faces in error :
    non-orthogonality > 65  degrees                        : 0
    faces with face pyramid volume < 1e-13                 : 0
    faces with face-decomposition tet quality < 1e-30      : 0
    faces with skewness > 20  (internal) or 20  (boundary) : 0
    faces with interpolation weights (0..1)  < 0.001       : 0
    faces with volume ratio of neighbour cells < 0.05      : 31
    faces with face twist < 0.02                           : 0
    faces on cells with determinant < 0.001                : 0

Iteration 4
Moving mesh using displacement scaling : min:0.316406  max:1
Checking faces in error :
    non-orthogonality > 65  degrees                        : 0
    faces with face pyramid volume < 1e-13                 : 0
    faces with face-decomposition tet quality < 1e-30      : 0
    faces with skewness > 20  (internal) or 20  (boundary) : 0
    faces with interpolation weights (0..1)  < 0.001       : 0
    faces with volume ratio of neighbour cells < 0.05      : 21
    faces with face twist < 0.02                           : 0
    faces on cells with determinant < 0.001                : 0

Iteration 5
Moving mesh using displacement scaling : min:0.237305  max:1
Checking faces in error :
    non-orthogonality > 65  degrees                        : 0
    faces with face pyramid volume < 1e-13                 : 0
    faces with face-decomposition tet quality < 1e-30      : 0
    faces with skewness > 20  (internal) or 20  (boundary) : 0
    faces with interpolation weights (0..1)  < 0.001       : 0
    faces with volume ratio of neighbour cells < 0.05      : 21
    faces with face twist < 0.02                           : 0
    faces on cells with determinant < 0.001                : 0

Iteration 6
Moving mesh using displacement scaling : min:0.177979  max:1
Checking faces in error :
    non-orthogonality > 65  degrees                        : 0
    faces with face pyramid volume < 1e-13                 : 0
    faces with face-decomposition tet quality < 1e-30      : 0
    faces with skewness > 20  (internal) or 20  (boundary) : 0
    faces with interpolation weights (0..1)  < 0.001       : 0
    faces with volume ratio of neighbour cells < 0.05      : 18
    faces with face twist < 0.02                           : 0
    faces on cells with determinant < 0.001                : 0

Iteration 7
Moving mesh using displacement scaling : min:0.133484  max:1
Checking faces in error :
    non-orthogonality > 65  degrees                        : 0
    faces with face pyramid volume < 1e-13                 : 0
    faces with face-decomposition tet quality < 1e-30      : 0
    faces with skewness > 20  (internal) or 20  (boundary) : 0
    faces with interpolation weights (0..1)  < 0.001       : 0
    faces with volume ratio of neighbour cells < 0.05      : 17
    faces with face twist < 0.02                           : 0
    faces on cells with determinant < 0.001                : 0

Iteration 8
Moving mesh using displacement scaling : min:0.100113  max:1
Checking faces in error :
    non-orthogonality > 65  degrees                        : 0
    faces with face pyramid volume < 1e-13                 : 0
    faces with face-decomposition tet quality < 1e-30      : 0
    faces with skewness > 20  (internal) or 20  (boundary) : 0
    faces with interpolation weights (0..1)  < 0.001       : 0
    faces with volume ratio of neighbour cells < 0.05      : 17
    faces with face twist < 0.02                           : 0
    faces on cells with determinant < 0.001                : 0

Iteration 9
Moving mesh using displacement scaling : min:0.0750847  max:1
Checking faces in error :
    non-orthogonality > 65  degrees                        : 0
    faces with face pyramid volume < 1e-13                 : 0
    faces with face-decomposition tet quality < 1e-30      : 0
    faces with skewness > 20  (internal) or 20  (boundary) : 0
    faces with interpolation weights (0..1)  < 0.001       : 0
    faces with volume ratio of neighbour cells < 0.05      : 17
    faces with face twist < 0.02                           : 0
    faces on cells with determinant < 0.001                : 0

Iteration 10
Displacement scaling for error reduction set to 0.
Moving mesh using displacement scaling : min:0.0563135  max:1
Checking faces in error :
    non-orthogonality > 65  degrees                        : 0
    faces with face pyramid volume < 1e-13                 : 0
    faces with face-decomposition tet quality < 1e-30      : 0
    faces with skewness > 20  (internal) or 20  (boundary) : 0
    faces with interpolation weights (0..1)  < 0.001       : 0
    faces with volume ratio of neighbour cells < 0.05      : 17
    faces with face twist < 0.02                           : 0
    faces on cells with determinant < 0.001                : 0

Iteration 11
Moving mesh using displacement scaling : min:0  max:1
Checking faces in error :
    non-orthogonality > 65  degrees                        : 0
    faces with face pyramid volume < 1e-13                 : 0
    faces with face-decomposition tet quality < 1e-30      : 0
    faces with skewness > 20  (internal) or 20  (boundary) : 0
    faces with interpolation weights (0..1)  < 0.001       : 0
    faces with volume ratio of neighbour cells < 0.05      : 15
    faces with face twist < 0.02                           : 0
    faces on cells with determinant < 0.001                : 0

Iteration 12
Moving mesh using displacement scaling : min:0  max:1
Checking faces in error :
    non-orthogonality > 65  degrees                        : 0
    faces with face pyramid volume < 1e-13                 : 0
    faces with face-decomposition tet quality < 1e-30      : 0
    faces with skewness > 20  (internal) or 20  (boundary) : 0
    faces with interpolation weights (0..1)  < 0.001       : 0
    faces with volume ratio of neighbour cells < 0.05      : 15
    faces with face twist < 0.02                           : 0
    faces on cells with determinant < 0.001                : 0

Iteration 13
Moving mesh using displacement scaling : min:0  max:1
Checking faces in error :
    non-orthogonality > 65  degrees                        : 0
    faces with face pyramid volume < 1e-13                 : 0
    faces with face-decomposition tet quality < 1e-30      : 0
    faces with skewness > 20  (internal) or 20  (boundary) : 0
    faces with interpolation weights (0..1)  < 0.001       : 0
    faces with volume ratio of neighbour cells < 0.05      : 15
    faces with face twist < 0.02                           : 0
    faces on cells with determinant < 0.001                : 0

Iteration 14
Moving mesh using displacement scaling : min:0  max:1
Checking faces in error :
    non-orthogonality > 65  degrees                        : 0
    faces with face pyramid volume < 1e-13                 : 0
    faces with face-decomposition tet quality < 1e-30      : 0
    faces with skewness > 20  (internal) or 20  (boundary) : 0
    faces with interpolation weights (0..1)  < 0.001       : 0
    faces with volume ratio of neighbour cells < 0.05      : 15
    faces with face twist < 0.02                           : 0
    faces on cells with determinant < 0.001                : 0

Iteration 15
Moving mesh using displacement scaling : min:0  max:1
Checking faces in error :
    non-orthogonality > 65  degrees                        : 0
    faces with face pyramid volume < 1e-13                 : 0
    faces with face-decomposition tet quality < 1e-30      : 0
    faces with skewness > 20  (internal) or 20  (boundary) : 0
    faces with interpolation weights (0..1)  < 0.001       : 0
    faces with volume ratio of neighbour cells < 0.05      : 15
    faces with face twist < 0.02                           : 0
    faces on cells with determinant < 0.001                : 0

Iteration 16
Moving mesh using displacement scaling : min:0  max:1
Checking faces in error :
    non-orthogonality > 65  degrees                        : 0
    faces with face pyramid volume < 1e-13                 : 0
    faces with face-decomposition tet quality < 1e-30      : 0
    faces with skewness > 20  (internal) or 20  (boundary) : 0
    faces with interpolation weights (0..1)  < 0.001       : 0
    faces with volume ratio of neighbour cells < 0.05      : 15
    faces with face twist < 0.02                           : 0
    faces on cells with determinant < 0.001                : 0

Iteration 17
Moving mesh using displacement scaling : min:0  max:1
Checking faces in error :
    non-orthogonality > 65  degrees                        : 0
    faces with face pyramid volume < 1e-13                 : 0
    faces with face-decomposition tet quality < 1e-30      : 0
    faces with skewness > 20  (internal) or 20  (boundary) : 0
    faces with interpolation weights (0..1)  < 0.001       : 0
    faces with volume ratio of neighbour cells < 0.05      : 15
    faces with face twist < 0.02                           : 0
    faces on cells with determinant < 0.001                : 0

Iteration 18
Moving mesh using displacement scaling : min:0  max:1
Checking faces in error :
    non-orthogonality > 65  degrees                        : 0
    faces with face pyramid volume < 1e-13                 : 0
    faces with face-decomposition tet quality < 1e-30      : 0
    faces with skewness > 20  (internal) or 20  (boundary) : 0
    faces with interpolation weights (0..1)  < 0.001       : 0
    faces with volume ratio of neighbour cells < 0.05      : 15
    faces with face twist < 0.02                           : 0
    faces on cells with determinant < 0.001                : 0

Iteration 19
Moving mesh using displacement scaling : min:0  max:1
Checking faces in error :
    non-orthogonality > 65  degrees                        : 0
    faces with face pyramid volume < 1e-13                 : 0
    faces with face-decomposition tet quality < 1e-30      : 0
    faces with skewness > 20  (internal) or 20  (boundary) : 0
    faces with interpolation weights (0..1)  < 0.001       : 0
    faces with volume ratio of neighbour cells < 0.05      : 15
    faces with face twist < 0.02                           : 0
    faces on cells with determinant < 0.001                : 0
Moved mesh in = 5.08 s


--> FOAM Warning : 
    From void Foam::snappySnapDriver::doSnap(const Foam::dictionary&, const Foam::dictionary&, Foam::meshRefinement::FaceMergeType, Foam::scalar, Foam::scalar, const Foam::snapParameters&)
    in file snappyHexMeshDriver/snappySnapDriver.C at line 2912
    Did not successfully snap mesh. Continuing to snap to resolve easy
    surfaces but the resulting mesh will not satisfy your quality constraints


Morph iteration 2
-----------------
[...]
    faces with face twist < 0.02                           : 0
    faces on cells with determinant < 0.001                : 0
Detected 0 error faces on boundaries that have been merged. These will be restored to their original faces.

Detected 202 error faces in mesh. Restoring neighbours of faces in error.

Edge intersection testing:
    Number of edges             : 1942625
    Number of edges to retest   : 12092
    Number of intersected edges : 141087
Snapped mesh : cells:604327  faces:1942625  points:758507
Cells per refinement level:
    0	3802
    1	34258
    2	281869
    3	121234
    4	163164
Writing mesh to time constant
Wrote mesh in = 6.92 s.
Mesh snapped in = 101.72 s.
Layer specification as
- final layer thickness ('finalLayerThickness')
- expansion ratio ('expansionRatio')

Shrinking and layer addition phase
----------------------------------

Using mesh parameters 
{
    maxNonOrtho     65;
    maxBoundarySkewness 20;
    maxInternalSkewness 20;
    maxConcave      180;
    minVol          1e-13;
    minTetQuality   1e-30;
    minArea         -1;
    minTwist        0.02;
    minDeterminant  0.001;
    minFaceWeight   0.001;
    minVolRatio     0.05;
    minTriangleTwist -1;
    nSmoothScale    4;
    errorReduction  0.75;
    relaxed
    {
        maxNonOrtho     75;
    }
}



Merging all faces of a cell
---------------------------
    - which are on the same patch
    - which make an angle < 60 degrees (cos:0.5)
    - as long as the resulting face doesn't become concave by more than 90 degrees
      (0=straight, 180=fully concave)

Merging 2545 sets of faces.

Edge intersection testing:
    Number of edges             : 1937916
    Number of edges to retest   : 14870
    Number of intersected edges : 136520

Undo iteration 0
----------------
Checking faces in error :
    non-orthogonality > 65  degrees                        : 6
    faces with face pyramid volume < 1e-13                 : 0
    faces with face-decomposition tet quality < 1e-30      : 54
    faces with skewness > 20  (internal) or 20  (boundary) : 0
    faces with interpolation weights (0..1)  < 0.001       : 0
    faces with volume ratio of neighbour cells < 0.05      : 717
    faces with face twist < 0.02                           : 1
    faces on cells with determinant < 0.001                : 0
Masters that need to be restored:779
Edge intersection testing:
    Number of edges             : 1939279
    Number of edges to retest   : 5308
    Number of intersected edges : 137890


Undo iteration 1
----------------
Checking faces in error :
    non-orthogonality > 65  degrees                        : 6
    faces with face pyramid volume < 1e-13                 : 0
    faces with face-decomposition tet quality < 1e-30      : 1
    faces with skewness > 20  (internal) or 20  (boundary) : 0
    faces with interpolation weights (0..1)  < 0.001       : 0
    faces with volume ratio of neighbour cells < 0.05      : 129
    faces with face twist < 0.02                           : 0
    faces on cells with determinant < 0.001                : 0
Masters that need to be restored:1
Edge intersection testing:
    Number of edges             : 1939281
    Number of edges to retest   : 6
    Number of intersected edges : 137892


Undo iteration 2
----------------
Checking faces in error :
    non-orthogonality > 65  degrees                        : 6
    faces with face pyramid volume < 1e-13                 : 0
    faces with face-decomposition tet quality < 1e-30      : 1
    faces with skewness > 20  (internal) or 20  (boundary) : 0
    faces with interpolation weights (0..1)  < 0.001       : 0
    faces with volume ratio of neighbour cells < 0.05      : 128
    faces with face twist < 0.02                           : 0
    faces on cells with determinant < 0.001                : 0
Masters that need to be restored:0

Merging all points on surface that
- are used by only two boundary faces and
- make an angle with a cosine of more than 0.5.

Removing 2372 straight edge points ...

Edge intersection testing:
    Number of edges             : 1939281
    Number of edges to retest   : 18006
    Number of intersected edges : 137754

Undo iteration 0
----------------
Checking faces in error :
    non-orthogonality > 65  degrees                        : 6
    faces with face pyramid volume < 1e-13                 : 0
    faces with face-decomposition tet quality < 1e-30      : 66
    faces with skewness > 20  (internal) or 20  (boundary) : 0
    faces with interpolation weights (0..1)  < 0.001       : 0
    faces with volume ratio of neighbour cells < 0.05      : 175
    faces with face twist < 0.02                           : 0
    faces on cells with determinant < 0.001                : 0
Detected 33 error faces on boundaries that have been merged. These will be restored to their original faces.

Edge intersection testing:
    Number of edges             : 1939281
    Number of edges to retest   : 466
    Number of intersected edges : 137754

Undo iteration 1
----------------
Checking faces in error :
    non-orthogonality > 65  degrees                        : 6
    faces with face pyramid volume < 1e-13                 : 0
    faces with face-decomposition tet quality < 1e-30      : 65
    faces with skewness > 20  (internal) or 20  (boundary) : 0
    faces with interpolation weights (0..1)  < 0.001       : 0
    faces with volume ratio of neighbour cells < 0.05      : 155
    faces with face twist < 0.02                           : 0
    faces on cells with determinant < 0.001                : 0
Detected 0 error faces on boundaries that have been merged. These will be restored to their original faces.

Detected 226 error faces in mesh. Restoring neighbours of faces in error.

Edge intersection testing:
    Number of edges             : 1939281
    Number of edges to retest   : 13351
    Number of intersected edges : 137754

Checking mesh manifoldness ...
Outside of mesh is multiply connected across edges or points.
This is not a fatal error but might cause some unexpected behaviour.


Checking initial mesh ...
Checking faces in error :
    non-orthogonality > 65  degrees                        : 6
    faces with face pyramid volume < 1e-13                 : 0
    faces with face-decomposition tet quality < 1e-30      : 1
    faces with skewness > 20  (internal) or 20  (boundary) : 0
    faces with interpolation weights (0..1)  < 0.001       : 0
    faces with volume ratio of neighbour cells < 0.05      : 128
    faces with face twist < 0.02                           : 0
    faces on cells with determinant < 0.001                : 0
Detected 135 illegal faces (concave, zero area or negative cell pyramid volume)

Doing initial balancing
-----------------------

Found 49436 zoned faces to keep together.
Found 0 separated coupled faces to keep together.
Converting zoned faces into baffles ...

FaceZone                      FaceType  nBaffles  
--------                      --------  --------  
faceMRFzone                   internal  49436     

Edge intersection testing:
    Number of edges             : 1988717
    Number of edges to retest   : 309681
    Number of intersected edges : 187138
Created 49436 baffles in = 8.21 s


Duplicating 0 points on faceZones of type boundary

Handling points with inconsistent layer specification ...
dupNonManifoldPoints : Found : 0 non-manifold points (out of 777989)

Handling points with inconsistent layer specification ...

Handling non-manifold points ...

Checking patch manifoldness ...
Outside of local patch is multiply connected across edges or points at 0 points.
Set displacement to zero for all 0 non-manifold points

Handling feature edges (angle < 60) ...
Set displacement to zero for points on 9546 feature edges

Handling cells with warped patch faces ...
Set displacement to zero on 149 warped faces since layer would be > 0.5 of the size of the bounding box.

patch    faces    layers avg thickness[m]
                         near-wall overall
-----    -----    ------ --------- -------
GeoTank  37480    2      0.585     1.46    
GeoShaft 51205    4      0.121     0.581   


Adding in total 0 inter-processor patches to handle extrusion of non-manifold processor boundaries.
Selecting externalDisplacementMeshMover displacementMedialAxis
displacementMedialAxis : Calculating distance to Medial Axis ...
--> FOAM IOWarning :
    Found [v1712] 'minMedianAxisAngle' entry instead of 'minMedialAxisAngle' in dictionary "system/snappyHexMeshDict.addLayersControls"

    This keyword is 54 months old.

fieldSmoother : Smoothing normals ...
    Iteration 0   residual 0.0492799
displacementMedialAxis : Inserting points on patch allBoundary if angle to nearest layer patch > 30 degrees.
displacementMedialAxis : Inserting points on patch top if angle to nearest layer patch > 30 degrees.
displacementMedialAxis : Inserting points on patch MRF if angle to nearest layer patch > 30 degrees.
displacementMedialAxis : Inserting points on patch MRF_slave if angle to nearest layer patch > 30 degrees.
fieldSmoother : Smoothing normals in interior ...
    Iteration 0   residual 0.0885154

Layer addition iteration 0
--------------------------

Determining displacement for added points according to pointNormal ...
Detected 0 points with point normal pointing through faces.
Reset displacement at 0 points to average of surrounding points.

displacementMedialAxis : Smoothing using Medial Axis ...
displacementMedialAxis : Reducing layer thickness at 4079 nodes where thickness to medial axis distance is large 
displacementMedialAxis : Removing isolated regions ...
- if partially extruded faces make angle < 30
- if exclusively surrounded by non-extruded faces
displacementMedialAxis : Number of isolated points extrusion stopped : 1501
fieldSmoother : Smoothing field ...
    Iteration 0   residual 0.00849523
displacementMedialAxis : Moving mesh ...
displacementMedialAxis : Iteration 0
Moving mesh using displacement scaling : min:1  max:1
Checking faces in error :
    non-orthogonality > 65  degrees                        : 517
    faces with face pyramid volume < 1e-13                 : 1
    faces with face-decomposition tet quality < 1e-30      : 404
    faces with skewness > 20  (internal) or 20  (boundary) : 0
    faces with interpolation weights (0..1)  < 0.001       : 0
    faces with volume ratio of neighbour cells < 0.05      : 1021
    faces with face twist < 0.02                           : 3
    faces on cells with determinant < 0.001                : 0
displacementMedialAxis : Iteration 1
Moving mesh using displacement scaling : min:0.75  max:1
Checking faces in error :
    non-orthogonality > 65  degrees                        : 477
    faces with face pyramid volume < 1e-13                 : 1
    faces with face-decomposition tet quality < 1e-30      : 357
    faces with skewness > 20  (internal) or 20  (boundary) : 0
    faces with interpolation weights (0..1)  < 0.001       : 0
    faces with volume ratio of neighbour cells < 0.05      : 1079
    faces with face twist < 0.02                           : 6
    faces on cells with determinant < 0.001                : 0
displacementMedialAxis : Iteration 2
Moving mesh using displacement scaling : min:0.5625  max:1
Checking faces in error :
    non-orthogonality > 65  degrees                        : 460
    faces with face pyramid volume < 1e-13                 : 1
    faces with face-decomposition tet quality < 1e-30      : 289
    faces with skewness > 20  (internal) or 20  (boundary) : 0
    faces with interpolation weights (0..1)  < 0.001       : 0
    faces with volume ratio of neighbour cells < 0.05      : 1110
    faces with face twist < 0.02                           : 10
    faces on cells with determinant < 0.001                : 0
displacementMedialAxis : Iteration 3
displacementMedialAxis : Displacement scaling for error reduction set to 0.
Moving mesh using displacement scaling : min:0.421875  max:1
Checking faces in error :
    non-orthogonality > 65  degrees                        : 437
    faces with face pyramid volume < 1e-13                 : 0
    faces with face-decomposition tet quality < 1e-30      : 277
    faces with skewness > 20  (internal) or 20  (boundary) : 0
    faces with interpolation weights (0..1)  < 0.001       : 0
    faces with volume ratio of neighbour cells < 0.05      : 1130
    faces with face twist < 0.02                           : 9
    faces on cells with determinant < 0.001                : 0
displacementMedialAxis : Iteration 4
Moving mesh using displacement scaling : min:0  max:1
Checking faces in error :
    non-orthogonality > 65  degrees                        : 25
    faces with face pyramid volume < 1e-13                 : 0
    faces with face-decomposition tet quality < 1e-30      : 278
    faces with skewness > 20  (internal) or 20  (boundary) : 0
    faces with interpolation weights (0..1)  < 0.001       : 0
    faces with volume ratio of neighbour cells < 0.05      : 175
    faces with face twist < 0.02                           : 3
    faces on cells with determinant < 0.001                : 0
displacementMedialAxis : Iteration 5
Moving mesh using displacement scaling : min:0  max:1
Checking faces in error :
    non-orthogonality > 65  degrees                        : 27
    faces with face pyramid volume < 1e-13                 : 0
    faces with face-decomposition tet quality < 1e-30      : 36
    faces with skewness > 20  (internal) or 20  (boundary) : 0
    faces with interpolation weights (0..1)  < 0.001       : 0
    faces with volume ratio of neighbour cells < 0.05      : 116
    faces with face twist < 0.02                           : 0
    faces on cells with determinant < 0.001                : 0
displacementMedialAxis : Finished moving mesh ...
truncateDisplacement : Unextruded 147 faces due to non-consecutive vertices being extruded.
truncateDisplacement : Unextruded 53 faces due to stringed edges with inconsistent extrusion.
truncateDisplacement : Unextruded 4 faces due to non-consecutive vertices being extruded.
truncateDisplacement : Unextruded 0 faces due to stringed edges with inconsistent extrusion.
truncateDisplacement : Unextruded 0 faces due to non-consecutive vertices being extruded.
truncateDisplacement : Unextruded 0 faces due to stringed edges with inconsistent extrusion.

Setting up information for layer truncation ...
Detected 49436 baffles across faceZones of type internal


Checking mesh with layer ...
Checking faces in error :
    non-orthogonality > 65  degrees                        : 46
    faces with face pyramid volume < 1e-13                 : 1
    faces with face-decomposition tet quality < 1e-30      : 1782
    faces with skewness > 20  (internal) or 20  (boundary) : 0
    faces with interpolation weights (0..1)  < 0.001       : 0
    faces with volume ratio of neighbour cells < 0.05      : 3008
    faces with face twist < 0.02                           : 69
    faces on cells with determinant < 0.001                : 28
Detected 4934 illegal faces (concave, zero area or negative cell pyramid volume)
Extruding 77214 out of 88685 faces (87.0655%). Removed extrusion at 4016 faces.
Added 163753 out of 279852 cells (58.5141%).


Layer addition iteration 1
--------------------------

Determining displacement for added points according to pointNormal ...
Detected 0 points with point normal pointing through faces.
Reset displacement at 0 points to average of surrounding points.

displacementMedialAxis : Smoothing using Medial Axis ...
displacementMedialAxis : Reducing layer thickness at 2000 nodes where thickness to medial axis distance is large 
displacementMedialAxis : Removing isolated regions ...
- if partially extruded faces make angle < 30
- if exclusively surrounded by non-extruded faces
displacementMedialAxis : Number of isolated points extrusion stopped : 5505
fieldSmoother : Smoothing field ...
    Iteration 0   residual 0.0110086
displacementMedialAxis : Moving mesh ...
displacementMedialAxis : Iteration 0
Moving mesh using displacement scaling : min:1  max:1
Checking faces in error :
    non-orthogonality > 65  degrees                        : 159
    faces with face pyramid volume < 1e-13                 : 0
    faces with face-decomposition tet quality < 1e-30      : 102
    faces with skewness > 20  (internal) or 20  (boundary) : 0
    faces with interpolation weights (0..1)  < 0.001       : 0
    faces with volume ratio of neighbour cells < 0.05      : 309
    faces with face twist < 0.02                           : 0
    faces on cells with determinant < 0.001                : 0
displacementMedialAxis : Iteration 1
Moving mesh using displacement scaling : min:0.75  max:1
Checking faces in error :
    non-orthogonality > 65  degrees                        : 152
    faces with face pyramid volume < 1e-13                 : 0
    faces with face-decomposition tet quality < 1e-30      : 66
    faces with skewness > 20  (internal) or 20  (boundary) : 0
    faces with interpolation weights (0..1)  < 0.001       : 0
    faces with volume ratio of neighbour cells < 0.05      : 301
    faces with face twist < 0.02                           : 0
    faces on cells with determinant < 0.001                : 0
displacementMedialAxis : Iteration 2
Moving mesh using displacement scaling : min:0.5625  max:1
Checking faces in error :
    non-orthogonality > 65  degrees                        : 147
    faces with face pyramid volume < 1e-13                 : 0
    faces with face-decomposition tet quality < 1e-30      : 56
    faces with skewness > 20  (internal) or 20  (boundary) : 0
    faces with interpolation weights (0..1)  < 0.001       : 0
    faces with volume ratio of neighbour cells < 0.05      : 291
    faces with face twist < 0.02                           : 0
    faces on cells with determinant < 0.001                : 0
displacementMedialAxis : Iteration 3
displacementMedialAxis : Displacement scaling for error reduction set to 0.
Moving mesh using displacement scaling : min:0.421875  max:1
Checking faces in error :
    non-orthogonality > 65  degrees                        : 146
    faces with face pyramid volume < 1e-13                 : 0
    faces with face-decomposition tet quality < 1e-30      : 40
    faces with skewness > 20  (internal) or 20  (boundary) : 0
    faces with interpolation weights (0..1)  < 0.001       : 0
    faces with volume ratio of neighbour cells < 0.05      : 282
    faces with face twist < 0.02                           : 0
    faces on cells with determinant < 0.001                : 0
displacementMedialAxis : Iteration 4
Moving mesh using displacement scaling : min:0  max:1
Checking faces in error :
    non-orthogonality > 65  degrees                        : 18
    faces with face pyramid volume < 1e-13                 : 0
    faces with face-decomposition tet quality < 1e-30      : 13
    faces with skewness > 20  (internal) or 20  (boundary) : 0
    faces with interpolation weights (0..1)  < 0.001       : 0
    faces with volume ratio of neighbour cells < 0.05      : 100
    faces with face twist < 0.02                           : 0
    faces on cells with determinant < 0.001                : 0
displacementMedialAxis : Successfully moved mesh
displacementMedialAxis : Finished moving mesh ...
truncateDisplacement : Unextruded 36 faces due to non-consecutive vertices being extruded.
truncateDisplacement : Unextruded 4 faces due to stringed edges with inconsistent extrusion.
truncateDisplacement : Unextruded 0 faces due to non-consecutive vertices being extruded.
truncateDisplacement : Unextruded 0 faces due to stringed edges with inconsistent extrusion.

Setting up information for layer truncation ...
Detected 49436 baffles across faceZones of type internal


Checking mesh with layer ...
Checking faces in error :
    non-orthogonality > 65  degrees                        : 23
    faces with face pyramid volume < 1e-13                 : 1
