/*---------------------------------------------------------------------------*\
| =========                 |                                                 |
| \\      /  F ield         | OpenFOAM: The Open Source CFD Toolbox           |
|  \\    /   O peration     | Version:  2206                                  |
|   \\  /    A nd           | Website:  www.openfoam.com                      |
|    \\/     M anipulation  |                                                 |
\*---------------------------------------------------------------------------*/
Build  : _76d719d1-20220624 OPENFOAM=2206 version=v2206
Arch   : "LSB;label=64;scalar=64"
Exec   : laplacianFoam -parallel
Date   : Jan 20 2023
Time   : 11:49:30
Host   : DESKTOP-BTFG136
PID    : 13373
I/O    : uncollated
Case   : /home/noreff/works/OpenFOAM-2206-user/Projects/CHADvalidation/thermal/CHADValid_simple_new
nProcs : 8
Hosts  :
(
    (DESKTOP-BTFG136 8)
)
Pstream initialized with:
    floatTransfer      : 0
    nProcsSimpleSum    : 0
    commsType          : nonBlocking
    polling iterations : 0
trapFpe: Floating point exception trapping enabled (FOAM_SIGFPE).
fileModificationChecking : Monitoring run-time modified files using timeStampMaster (fileModificationSkew 5, maxFileModificationPolls 20)
allowSystemOperations : Allowing user-supplied system call operations

// * * * * * * * * * * * * * * * * * * * * * * * * * * * * * * * * * * * * * //
Create time

Create mesh for time = 0


SIMPLE: no convergence criteria found. Calculations will run for 200 steps.

Reading field T

Reading diffusivity DT

No finite volume options present

Calculating temperature distribution

Time = 0.05

DICPCG:  Solving for T, Initial residual = 1, Final residual = 8.51118e-07, No Iterations 4
DICPCG:  Solving for T, Initial residual = 2.42684e-07, Final residual = 2.42684e-07, No Iterations 0
DICPCG:  Solving for T, Initial residual = 2.42684e-07, Final residual = 2.42684e-07, No Iterations 0
ExecutionTime = 0.19 s  ClockTime = 0 s

Time = 0.1

DICPCG:  Solving for T, Initial residual = 0.178921, Final residual = 1.5288e-07, No Iterations 4
DICPCG:  Solving for T, Initial residual = 1.05403e-07, Final residual = 1.05403e-07, No Iterations 0
DICPCG:  Solving for T, Initial residual = 1.05403e-07, Final residual = 1.05403e-07, No Iterations 0
ExecutionTime = 0.21 s  ClockTime = 0 s

Time = 0.15

DICPCG:  Solving for T, Initial residual = 0.0888591, Final residual = 8.3003e-08, No Iterations 4
DICPCG:  Solving for T, Initial residual = 6.75708e-08, Final residual = 6.75708e-08, No Iterations 0
DICPCG:  Solving for T, Initial residual = 6.75708e-08, Final residual = 6.75708e-08, No Iterations 0
ExecutionTime = 0.22 s  ClockTime = 0 s

Time = 0.2

DICPCG:  Solving for T, Initial residual = 0.0558732, Final residual = 5.66123e-08, No Iterations 4
DICPCG:  Solving for T, Initial residual = 4.93885e-08, Final residual = 4.93885e-08, No Iterations 0
DICPCG:  Solving for T, Initial residual = 4.93885e-08, Final residual = 4.93885e-08, No Iterations 0
ExecutionTime = 0.24 s  ClockTime = 0 s

Time = 0.25

DICPCG:  Solving for T, Initial residual = 0.0395294, Final residual = 4.49279e-08, No Iterations 4
DICPCG:  Solving for T, Initial residual = 4.06597e-08, Final residual = 4.06597e-08, No Iterations 0
DICPCG:  Solving for T, Initial residual = 4.06597e-08, Final residual = 4.06597e-08, No Iterations 0
ExecutionTime = 0.26 s  ClockTime = 0 s

Time = 0.3

DICPCG:  Solving for T, Initial residual = 0.0301092, Final residual = 6.40865e-07, No Iterations 3
DICPCG:  Solving for T, Initial residual = 5.93112e-07, Final residual = 5.93112e-07, No Iterations 0
DICPCG:  Solving for T, Initial residual = 5.93112e-07, Final residual = 5.93112e-07, No Iterations 0
ExecutionTime = 0.28 s  ClockTime = 0 s

Time = 0.35

DICPCG:  Solving for T, Initial residual = 0.0241262, Final residual = 4.30261e-07, No Iterations 3
DICPCG:  Solving for T, Initial residual = 4.03834e-07, Final residual = 4.03834e-07, No Iterations 0
DICPCG:  Solving for T, Initial residual = 4.03834e-07, Final residual = 4.03834e-07, No Iterations 0
ExecutionTime = 0.3 s  ClockTime = 0 s

Time = 0.4

DICPCG:  Solving for T, Initial residual = 0.0200552, Final residual = 4.30123e-07, No Iterations 3
DICPCG:  Solving for T, Initial residual = 4.07776e-07, Final residual = 4.07776e-07, No Iterations 0
DICPCG:  Solving for T, Initial residual = 4.07776e-07, Final residual = 4.07776e-07, No Iterations 0
ExecutionTime = 0.31 s  ClockTime = 0 s

Time = 0.45

DICPCG:  Solving for T, Initial residual = 0.0171439, Final residual = 4.09837e-07, No Iterations 3
DICPCG:  Solving for T, Initial residual = 3.9144e-07, Final residual = 3.9144e-07, No Iterations 0
DICPCG:  Solving for T, Initial residual = 3.9144e-07, Final residual = 3.9144e-07, No Iterations 0
ExecutionTime = 0.33 s  ClockTime = 0 s

Time = 0.5

DICPCG:  Solving for T, Initial residual = 0.0149753, Final residual = 3.705e-07, No Iterations 3
DICPCG:  Solving for T, Initial residual = 3.55879e-07, Final residual = 3.55879e-07, No Iterations 0
DICPCG:  Solving for T, Initial residual = 3.55879e-07, Final residual = 3.55879e-07, No Iterations 0
ExecutionTime = 0.35 s  ClockTime = 0 s

Time = 0.55

DICPCG:  Solving for T, Initial residual = 0.0132977, Final residual = 3.26942e-07, No Iterations 3
DICPCG:  Solving for T, Initial residual = 3.15358e-07, Final residual = 3.15358e-07, No Iterations 0
DICPCG:  Solving for T, Initial residual = 3.15358e-07, Final residual = 3.15358e-07, No Iterations 0
ExecutionTime = 0.37 s  ClockTime = 0 s

Time = 0.6

DICPCG:  Solving for T, Initial residual = 0.0119632, Final residual = 2.86101e-07, No Iterations 3
DICPCG:  Solving for T, Initial residual = 2.76911e-07, Final residual = 2.76911e-07, No Iterations 0
DICPCG:  Solving for T, Initial residual = 2.76911e-07, Final residual = 2.76911e-07, No Iterations 0
ExecutionTime = 0.38 s  ClockTime = 0 s

Time = 0.65

DICPCG:  Solving for T, Initial residual = 0.0108785, Final residual = 2.50205e-07, No Iterations 3
DICPCG:  Solving for T, Initial residual = 2.42876e-07, Final residual = 2.42876e-07, No Iterations 0
DICPCG:  Solving for T, Initial residual = 2.42876e-07, Final residual = 2.42876e-07, No Iterations 0
ExecutionTime = 0.4 s  ClockTime = 0 s

Time = 0.7

DICPCG:  Solving for T, Initial residual = 0.00998069, Final residual = 2.19497e-07, No Iterations 3
DICPCG:  Solving for T, Initial residual = 2.13592e-07, Final residual = 2.13592e-07, No Iterations 0
DICPCG:  Solving for T, Initial residual = 2.13592e-07, Final residual = 2.13592e-07, No Iterations 0
ExecutionTime = 0.42 s  ClockTime = 0 s

Time = 0.75

DICPCG:  Solving for T, Initial residual = 0.0092253, Final residual = 1.93469e-07, No Iterations 3
DICPCG:  Solving for T, Initial residual = 1.88658e-07, Final residual = 1.88658e-07, No Iterations 0
DICPCG:  Solving for T, Initial residual = 1.88658e-07, Final residual = 1.88658e-07, No Iterations 0
ExecutionTime = 0.44 s  ClockTime = 0 s

Time = 0.8

DICPCG:  Solving for T, Initial residual = 0.00857886, Final residual = 1.71388e-07, No Iterations 3
DICPCG:  Solving for T, Initial residual = 1.67412e-07, Final residual = 1.67412e-07, No Iterations 0
DICPCG:  Solving for T, Initial residual = 1.67412e-07, Final residual = 1.67412e-07, No Iterations 0
ExecutionTime = 0.45 s  ClockTime = 0 s

Time = 0.85

DICPCG:  Solving for T, Initial residual = 0.00801841, Final residual = 1.52643e-07, No Iterations 3
DICPCG:  Solving for T, Initial residual = 1.49307e-07, Final residual = 1.49307e-07, No Iterations 0
DICPCG:  Solving for T, Initial residual = 1.49307e-07, Final residual = 1.49307e-07, No Iterations 0
ExecutionTime = 0.47 s  ClockTime = 0 s

Time = 0.9

DICPCG:  Solving for T, Initial residual = 0.00752793, Final residual = 1.36686e-07, No Iterations 3
DICPCG:  Solving for T, Initial residual = 1.33882e-07, Final residual = 1.33882e-07, No Iterations 0
DICPCG:  Solving for T, Initial residual = 1.33882e-07, Final residual = 1.33882e-07, No Iterations 0
ExecutionTime = 0.49 s  ClockTime = 0 s

Time = 0.95

DICPCG:  Solving for T, Initial residual = 0.00709603, Final residual = 1.23086e-07, No Iterations 3
DICPCG:  Solving for T, Initial residual = 1.20707e-07, Final residual = 1.20707e-07, No Iterations 0
DICPCG:  Solving for T, Initial residual = 1.20707e-07, Final residual = 1.20707e-07, No Iterations 0
ExecutionTime = 0.51 s  ClockTime = 0 s

Time = 1

DICPCG:  Solving for T, Initial residual = 0.00671277, Final residual = 1.1154e-07, No Iterations 3
DICPCG:  Solving for T, Initial residual = 1.09503e-07, Final residual = 1.09503e-07, No Iterations 0
DICPCG:  Solving for T, Initial residual = 1.09503e-07, Final residual = 1.09503e-07, No Iterations 0
ExecutionTime = 0.58 s  ClockTime = 0 s

Time = 1.05

DICPCG:  Solving for T, Initial residual = 0.00637037, Final residual = 1.03007e-07, No Iterations 3
DICPCG:  Solving for T, Initial residual = 1.01225e-07, Final residual = 1.01225e-07, No Iterations 0
DICPCG:  Solving for T, Initial residual = 1.01225e-07, Final residual = 1.01225e-07, No Iterations 0
ExecutionTime = 0.61 s  ClockTime = 0 s

Time = 1.1

DICPCG:  Solving for T, Initial residual = 0.00606232, Final residual = 9.5453e-08, No Iterations 3
DICPCG:  Solving for T, Initial residual = 9.38892e-08, Final residual = 9.38892e-08, No Iterations 0
DICPCG:  Solving for T, Initial residual = 9.38892e-08, Final residual = 9.38892e-08, No Iterations 0
ExecutionTime = 0.63 s  ClockTime = 0 s

Time = 1.15

DICPCG:  Solving for T, Initial residual = 0.00578274, Final residual = 8.86978e-08, No Iterations 3
DICPCG:  Solving for T, Initial residual = 8.7293e-08, Final residual = 8.7293e-08, No Iterations 0
DICPCG:  Solving for T, Initial residual = 8.7293e-08, Final residual = 8.7293e-08, No Iterations 0
ExecutionTime = 0.65 s  ClockTime = 0 s

Time = 1.2

DICPCG:  Solving for T, Initial residual = 0.00552739, Final residual = 8.26285e-08, No Iterations 3
DICPCG:  Solving for T, Initial residual = 8.13787e-08, Final residual = 8.13787e-08, No Iterations 0
DICPCG:  Solving for T, Initial residual = 8.13787e-08, Final residual = 8.13787e-08, No Iterations 0
ExecutionTime = 0.67 s  ClockTime = 0 s

Time = 1.25

DICPCG:  Solving for T, Initial residual = 0.00529436, Final residual = 7.7175e-08, No Iterations 3
DICPCG:  Solving for T, Initial residual = 7.60582e-08, Final residual = 7.60582e-08, No Iterations 0
DICPCG:  Solving for T, Initial residual = 7.60582e-08, Final residual = 7.60582e-08, No Iterations 0
ExecutionTime = 0.68 s  ClockTime = 0 s

Time = 1.3

DICPCG:  Solving for T, Initial residual = 0.00508086, Final residual = 7.22575e-08, No Iterations 3
DICPCG:  Solving for T, Initial residual = 7.12555e-08, Final residual = 7.12555e-08, No Iterations 0
DICPCG:  Solving for T, Initial residual = 7.12555e-08, Final residual = 7.12555e-08, No Iterations 0
ExecutionTime = 0.7 s  ClockTime = 0 s

Time = 1.35

DICPCG:  Solving for T, Initial residual = 0.00488452, Final residual = 6.78047e-08, No Iterations 3
DICPCG:  Solving for T, Initial residual = 6.69024e-08, Final residual = 6.69024e-08, No Iterations 0
DICPCG:  Solving for T, Initial residual = 6.69024e-08, Final residual = 6.69024e-08, No Iterations 0
ExecutionTime = 0.72 s  ClockTime = 0 s

Time = 1.4

DICPCG:  Solving for T, Initial residual = 0.00470338, Final residual = 6.37568e-08, No Iterations 3
DICPCG:  Solving for T, Initial residual = 6.29414e-08, Final residual = 6.29414e-08, No Iterations 0
DICPCG:  Solving for T, Initial residual = 6.29414e-08, Final residual = 6.29414e-08, No Iterations 0
ExecutionTime = 0.74 s  ClockTime = 0 s

Time = 1.45

DICPCG:  Solving for T, Initial residual = 0.00453575, Final residual = 6.0062e-08, No Iterations 3
DICPCG:  Solving for T, Initial residual = 5.93228e-08, Final residual = 5.93228e-08, No Iterations 0
DICPCG:  Solving for T, Initial residual = 5.93228e-08, Final residual = 5.93228e-08, No Iterations 0
ExecutionTime = 0.75 s  ClockTime = 0 s

Time = 1.5

DICPCG:  Solving for T, Initial residual = 0.00437982, Final residual = 5.66738e-08, No Iterations 3
DICPCG:  Solving for T, Initial residual = 5.60011e-08, Final residual = 5.60011e-08, No Iterations 0
DICPCG:  Solving for T, Initial residual = 5.60011e-08, Final residual = 5.60011e-08, No Iterations 0
ExecutionTime = 0.77 s  ClockTime = 0 s

Time = 1.55

DICPCG:  Solving for T, Initial residual = 0.00423406, Final residual = 5.3554e-08, No Iterations 3
DICPCG:  Solving for T, Initial residual = 5.29335e-08, Final residual = 5.29335e-08, No Iterations 0
DICPCG:  Solving for T, Initial residual = 5.29335e-08, Final residual = 5.29335e-08, No Iterations 0
ExecutionTime = 0.79 s  ClockTime = 0 s

Time = 1.6

DICPCG:  Solving for T, Initial residual = 0.00409749, Final residual = 5.0675e-08, No Iterations 3
DICPCG:  Solving for T, Initial residual = 5.01075e-08, Final residual = 5.01075e-08, No Iterations 0
DICPCG:  Solving for T, Initial residual = 5.01075e-08, Final residual = 5.01075e-08, No Iterations 0
ExecutionTime = 0.81 s  ClockTime = 0 s

Time = 1.65

DICPCG:  Solving for T, Initial residual = 0.00396975, Final residual = 4.80215e-08, No Iterations 3
DICPCG:  Solving for T, Initial residual = 4.75012e-08, Final residual = 4.75012e-08, No Iterations 0
DICPCG:  Solving for T, Initial residual = 4.75012e-08, Final residual = 4.75012e-08, No Iterations 0
ExecutionTime = 0.82 s  ClockTime = 0 s

Time = 1.7

DICPCG:  Solving for T, Initial residual = 0.00385003, Final residual = 4.55675e-08, No Iterations 3
DICPCG:  Solving for T, Initial residual = 4.50895e-08, Final residual = 4.50895e-08, No Iterations 0
DICPCG:  Solving for T, Initial residual = 4.50895e-08, Final residual = 4.50895e-08, No Iterations 0
ExecutionTime = 0.84 s  ClockTime = 0 s

Time = 1.75

DICPCG:  Solving for T, Initial residual = 0.0037376, Final residual = 4.32957e-08, No Iterations 3
DICPCG:  Solving for T, Initial residual = 4.28556e-08, Final residual = 4.28556e-08, No Iterations 0
DICPCG:  Solving for T, Initial residual = 4.28556e-08, Final residual = 4.28556e-08, No Iterations 0
ExecutionTime = 0.86 s  ClockTime = 1 s

Time = 1.8

DICPCG:  Solving for T, Initial residual = 0.00363181, Final residual = 4.11933e-08, No Iterations 3
DICPCG:  Solving for T, Initial residual = 4.07872e-08, Final residual = 4.07872e-08, No Iterations 0
DICPCG:  Solving for T, Initial residual = 4.07872e-08, Final residual = 4.07872e-08, No Iterations 0
ExecutionTime = 0.88 s  ClockTime = 1 s

Time = 1.85

DICPCG:  Solving for T, Initial residual = 0.00353211, Final residual = 3.92506e-08, No Iterations 3
DICPCG:  Solving for T, Initial residual = 3.8875e-08, Final residual = 3.8875e-08, No Iterations 0
DICPCG:  Solving for T, Initial residual = 3.8875e-08, Final residual = 3.8875e-08, No Iterations 0
ExecutionTime = 0.9 s  ClockTime = 1 s

Time = 1.9

DICPCG:  Solving for T, Initial residual = 0.00343798, Final residual = 3.76826e-08, No Iterations 3
DICPCG:  Solving for T, Initial residual = 3.73324e-08, Final residual = 3.73324e-08, No Iterations 0
DICPCG:  Solving for T, Initial residual = 3.73324e-08, Final residual = 3.73324e-08, No Iterations 0
ExecutionTime = 0.92 s  ClockTime = 1 s

Time = 1.95

DICPCG:  Solving for T, Initial residual = 0.00334879, Final residual = 3.62227e-08, No Iterations 3
DICPCG:  Solving for T, Initial residual = 3.58955e-08, Final residual = 3.58955e-08, No Iterations 0
DICPCG:  Solving for T, Initial residual = 3.58955e-08, Final residual = 3.58955e-08, No Iterations 0
ExecutionTime = 0.94 s  ClockTime = 1 s

Time = 2

DICPCG:  Solving for T, Initial residual = 0.00326395, Final residual = 3.48361e-08, No Iterations 3
DICPCG:  Solving for T, Initial residual = 3.4526e-08, Final residual = 3.4526e-08, No Iterations 0
DICPCG:  Solving for T, Initial residual = 3.4526e-08, Final residual = 3.4526e-08, No Iterations 0
ExecutionTime = 1.03 s  ClockTime = 1 s

Time = 2.05

DICPCG:  Solving for T, Initial residual = 0.00318311, Final residual = 3.35176e-08, No Iterations 3
DICPCG:  Solving for T, Initial residual = 3.3227e-08, Final residual = 3.3227e-08, No Iterations 0
DICPCG:  Solving for T, Initial residual = 3.3227e-08, Final residual = 3.3227e-08, No Iterations 0
ExecutionTime = 1.05 s  ClockTime = 1 s

Time = 2.1

DICPCG:  Solving for T, Initial residual = 0.00310633, Final residual = 3.22663e-08, No Iterations 3
DICPCG:  Solving for T, Initial residual = 3.19938e-08, Final residual = 3.19938e-08, No Iterations 0
DICPCG:  Solving for T, Initial residual = 3.19938e-08, Final residual = 3.19938e-08, No Iterations 0
ExecutionTime = 1.06 s  ClockTime = 1 s

Time = 2.15

DICPCG:  Solving for T, Initial residual = 0.00303331, Final residual = 3.10776e-08, No Iterations 3
DICPCG:  Solving for T, Initial residual = 3.08216e-08, Final residual = 3.08216e-08, No Iterations 0
DICPCG:  Solving for T, Initial residual = 3.08216e-08, Final residual = 3.08216e-08, No Iterations 0
ExecutionTime = 1.08 s  ClockTime = 1 s

Time = 2.2

DICPCG:  Solving for T, Initial residual = 0.00296378, Final residual = 2.99476e-08, No Iterations 3
DICPCG:  Solving for T, Initial residual = 2.9707e-08, Final residual = 2.9707e-08, No Iterations 0
DICPCG:  Solving for T, Initial residual = 2.9707e-08, Final residual = 2.9707e-08, No Iterations 0
ExecutionTime = 1.1 s  ClockTime = 1 s

Time = 2.25

DICPCG:  Solving for T, Initial residual = 0.00289751, Final residual = 9.66806e-07, No Iterations 2
DICPCG:  Solving for T, Initial residual = 9.59226e-07, Final residual = 9.59226e-07, No Iterations 0
DICPCG:  Solving for T, Initial residual = 9.59226e-07, Final residual = 9.59226e-07, No Iterations 0
ExecutionTime = 1.12 s  ClockTime = 1 s

Time = 2.3

DICPCG:  Solving for T, Initial residual = 0.00283422, Final residual = 9.32649e-07, No Iterations 2
DICPCG:  Solving for T, Initial residual = 9.25509e-07, Final residual = 9.25509e-07, No Iterations 0
DICPCG:  Solving for T, Initial residual = 9.25509e-07, Final residual = 9.25509e-07, No Iterations 0
ExecutionTime = 1.13 s  ClockTime = 1 s

Time = 2.35

DICPCG:  Solving for T, Initial residual = 0.00277379, Final residual = 8.99839e-07, No Iterations 2
DICPCG:  Solving for T, Initial residual = 8.9311e-07, Final residual = 8.9311e-07, No Iterations 0
DICPCG:  Solving for T, Initial residual = 8.9311e-07, Final residual = 8.9311e-07, No Iterations 0
ExecutionTime = 1.15 s  ClockTime = 1 s

Time = 2.4

DICPCG:  Solving for T, Initial residual = 0.00271601, Final residual = 8.68421e-07, No Iterations 2
DICPCG:  Solving for T, Initial residual = 8.62075e-07, Final residual = 8.62075e-07, No Iterations 0
DICPCG:  Solving for T, Initial residual = 8.62075e-07, Final residual = 8.62075e-07, No Iterations 0
ExecutionTime = 1.17 s  ClockTime = 1 s

Time = 2.45

DICPCG:  Solving for T, Initial residual = 0.00266072, Final residual = 8.38382e-07, No Iterations 2
DICPCG:  Solving for T, Initial residual = 8.32393e-07, Final residual = 8.32393e-07, No Iterations 0
DICPCG:  Solving for T, Initial residual = 8.32393e-07, Final residual = 8.32393e-07, No Iterations 0
ExecutionTime = 1.19 s  ClockTime = 1 s

Time = 2.5

DICPCG:  Solving for T, Initial residual = 0.00260749, Final residual = 8.09608e-07, No Iterations 2
DICPCG:  Solving for T, Initial residual = 8.03901e-07, Final residual = 8.03901e-07, No Iterations 0
DICPCG:  Solving for T, Initial residual = 8.03901e-07, Final residual = 8.03901e-07, No Iterations 0
ExecutionTime = 1.2 s  ClockTime = 1 s

Time = 2.55

DICPCG:  Solving for T, Initial residual = 0.00255621, Final residual = 7.82063e-07, No Iterations 2
DICPCG:  Solving for T, Initial residual = 7.76644e-07, Final residual = 7.76644e-07, No Iterations 0
DICPCG:  Solving for T, Initial residual = 7.76644e-07, Final residual = 7.76644e-07, No Iterations 0
ExecutionTime = 1.22 s  ClockTime = 1 s

Time = 2.6

DICPCG:  Solving for T, Initial residual = 0.00250692, Final residual = 7.55745e-07, No Iterations 2
DICPCG:  Solving for T, Initial residual = 7.50617e-07, Final residual = 7.50617e-07, No Iterations 0
DICPCG:  Solving for T, Initial residual = 7.50617e-07, Final residual = 7.50617e-07, No Iterations 0
ExecutionTime = 1.24 s  ClockTime = 1 s

Time = 2.65

DICPCG:  Solving for T, Initial residual = 0.00245958, Final residual = 7.30623e-07, No Iterations 2
DICPCG:  Solving for T, Initial residual = 7.25766e-07, Final residual = 7.25766e-07, No Iterations 0
DICPCG:  Solving for T, Initial residual = 7.25766e-07, Final residual = 7.25766e-07, No Iterations 0
ExecutionTime = 1.25 s  ClockTime = 1 s

Time = 2.7

DICPCG:  Solving for T, Initial residual = 0.00241407, Final residual = 7.06643e-07, No Iterations 2
DICPCG:  Solving for T, Initial residual = 7.02039e-07, Final residual = 7.02039e-07, No Iterations 0
DICPCG:  Solving for T, Initial residual = 7.02039e-07, Final residual = 7.02039e-07, No Iterations 0
ExecutionTime = 1.27 s  ClockTime = 1 s

Time = 2.75

DICPCG:  Solving for T, Initial residual = 0.00237029, Final residual = 6.83758e-07, No Iterations 2
DICPCG:  Solving for T, Initial residual = 6.79391e-07, Final residual = 6.79391e-07, No Iterations 0
DICPCG:  Solving for T, Initial residual = 6.79391e-07, Final residual = 6.79391e-07, No Iterations 0
ExecutionTime = 1.29 s  ClockTime = 1 s

Time = 2.8

DICPCG:  Solving for T, Initial residual = 0.00232814, Final residual = 6.61904e-07, No Iterations 2
DICPCG:  Solving for T, Initial residual = 6.57758e-07, Final residual = 6.57758e-07, No Iterations 0
DICPCG:  Solving for T, Initial residual = 6.57758e-07, Final residual = 6.57758e-07, No Iterations 0
ExecutionTime = 1.3 s  ClockTime = 1 s

Time = 2.85

DICPCG:  Solving for T, Initial residual = 0.00228754, Final residual = 6.41031e-07, No Iterations 2
DICPCG:  Solving for T, Initial residual = 6.37093e-07, Final residual = 6.37093e-07, No Iterations 0
DICPCG:  Solving for T, Initial residual = 6.37093e-07, Final residual = 6.37093e-07, No Iterations 0
ExecutionTime = 1.32 s  ClockTime = 1 s

Time = 2.9

DICPCG:  Solving for T, Initial residual = 0.0022484, Final residual = 6.21094e-07, No Iterations 2
DICPCG:  Solving for T, Initial residual = 6.17351e-07, Final residual = 6.17351e-07, No Iterations 0
DICPCG:  Solving for T, Initial residual = 6.17351e-07, Final residual = 6.17351e-07, No Iterations 0
ExecutionTime = 1.34 s  ClockTime = 1 s

Time = 2.95

DICPCG:  Solving for T, Initial residual = 0.00221065, Final residual = 6.02038e-07, No Iterations 2
DICPCG:  Solving for T, Initial residual = 5.98476e-07, Final residual = 5.98476e-07, No Iterations 0
DICPCG:  Solving for T, Initial residual = 5.98476e-07, Final residual = 5.98476e-07, No Iterations 0
ExecutionTime = 1.35 s  ClockTime = 1 s

Time = 3

DICPCG:  Solving for T, Initial residual = 0.00217421, Final residual = 5.83813e-07, No Iterations 2
DICPCG:  Solving for T, Initial residual = 5.80422e-07, Final residual = 5.80422e-07, No Iterations 0
DICPCG:  Solving for T, Initial residual = 5.80422e-07, Final residual = 5.80422e-07, No Iterations 0
ExecutionTime = 1.43 s  ClockTime = 1 s

Time = 3.05

DICPCG:  Solving for T, Initial residual = 0.00213902, Final residual = 5.66377e-07, No Iterations 2
DICPCG:  Solving for T, Initial residual = 5.63148e-07, Final residual = 5.63148e-07, No Iterations 0
DICPCG:  Solving for T, Initial residual = 5.63148e-07, Final residual = 5.63148e-07, No Iterations 0
ExecutionTime = 1.45 s  ClockTime = 1 s

Time = 3.1

DICPCG:  Solving for T, Initial residual = 0.00210482, Final residual = 5.49642e-07, No Iterations 2
DICPCG:  Solving for T, Initial residual = 5.46531e-07, Final residual = 5.46531e-07, No Iterations 0
DICPCG:  Solving for T, Initial residual = 5.46531e-07, Final residual = 5.46531e-07, No Iterations 0
ExecutionTime = 1.47 s  ClockTime = 1 s

Time = 3.15

DICPCG:  Solving for T, Initial residual = 0.00207161, Final residual = 5.33594e-07, No Iterations 2
DICPCG:  Solving for T, Initial residual = 5.30618e-07, Final residual = 5.30618e-07, No Iterations 0
DICPCG:  Solving for T, Initial residual = 5.30618e-07, Final residual = 5.30618e-07, No Iterations 0
ExecutionTime = 1.48 s  ClockTime = 1 s

Time = 3.2

DICPCG:  Solving for T, Initial residual = 0.00203944, Final residual = 5.18226e-07, No Iterations 2
DICPCG:  Solving for T, Initial residual = 5.15385e-07, Final residual = 5.15385e-07, No Iterations 0
DICPCG:  Solving for T, Initial residual = 5.15385e-07, Final residual = 5.15385e-07, No Iterations 0
ExecutionTime = 1.5 s  ClockTime = 1 s

Time = 3.25

DICPCG:  Solving for T, Initial residual = 0.0020083, Final residual = 5.03519e-07, No Iterations 2
DICPCG:  Solving for T, Initial residual = 5.00804e-07, Final residual = 5.00804e-07, No Iterations 0
DICPCG:  Solving for T, Initial residual = 5.00804e-07, Final residual = 5.00804e-07, No Iterations 0
ExecutionTime = 1.52 s  ClockTime = 1 s

Time = 3.3

DICPCG:  Solving for T, Initial residual = 0.00197814, Final residual = 4.89428e-07, No Iterations 2
DICPCG:  Solving for T, Initial residual = 4.86832e-07, Final residual = 4.86832e-07, No Iterations 0
DICPCG:  Solving for T, Initial residual = 4.86832e-07, Final residual = 4.86832e-07, No Iterations 0
ExecutionTime = 1.53 s  ClockTime = 1 s

Time = 3.35

DICPCG:  Solving for T, Initial residual = 0.00194892, Final residual = 4.76798e-07, No Iterations 2
DICPCG:  Solving for T, Initial residual = 4.7431e-07, Final residual = 4.7431e-07, No Iterations 0
DICPCG:  Solving for T, Initial residual = 4.7431e-07, Final residual = 4.7431e-07, No Iterations 0
ExecutionTime = 1.55 s  ClockTime = 1 s

Time = 3.4

DICPCG:  Solving for T, Initial residual = 0.00192059, Final residual = 4.6478e-07, No Iterations 2
DICPCG:  Solving for T, Initial residual = 4.62393e-07, Final residual = 4.62393e-07, No Iterations 0
DICPCG:  Solving for T, Initial residual = 4.62393e-07, Final residual = 4.62393e-07, No Iterations 0
ExecutionTime = 1.57 s  ClockTime = 1 s

Time = 3.45

DICPCG:  Solving for T, Initial residual = 0.00189311, Final residual = 4.53187e-07, No Iterations 2
DICPCG:  Solving for T, Initial residual = 4.50897e-07, Final residual = 4.50897e-07, No Iterations 0
DICPCG:  Solving for T, Initial residual = 4.50897e-07, Final residual = 4.50897e-07, No Iterations 0
ExecutionTime = 1.58 s  ClockTime = 1 s

Time = 3.5

DICPCG:  Solving for T, Initial residual = 0.00186645, Final residual = 4.42002e-07, No Iterations 2
DICPCG:  Solving for T, Initial residual = 4.39803e-07, Final residual = 4.39803e-07, No Iterations 0
DICPCG:  Solving for T, Initial residual = 4.39803e-07, Final residual = 4.39803e-07, No Iterations 0
ExecutionTime = 1.6 s  ClockTime = 1 s

Time = 3.55

DICPCG:  Solving for T, Initial residual = 0.00184057, Final residual = 4.31207e-07, No Iterations 2
DICPCG:  Solving for T, Initial residual = 4.29095e-07, Final residual = 4.29095e-07, No Iterations 0
DICPCG:  Solving for T, Initial residual = 4.29095e-07, Final residual = 4.29095e-07, No Iterations 0
ExecutionTime = 1.62 s  ClockTime = 1 s

Time = 3.6

DICPCG:  Solving for T, Initial residual = 0.00181544, Final residual = 4.20787e-07, No Iterations 2
DICPCG:  Solving for T, Initial residual = 4.18757e-07, Final residual = 4.18757e-07, No Iterations 0
DICPCG:  Solving for T, Initial residual = 4.18757e-07, Final residual = 4.18757e-07, No Iterations 0
ExecutionTime = 1.63 s  ClockTime = 1 s

Time = 3.65

DICPCG:  Solving for T, Initial residual = 0.00179102, Final residual = 4.10732e-07, No Iterations 2
DICPCG:  Solving for T, Initial residual = 4.0878e-07, Final residual = 4.0878e-07, No Iterations 0
DICPCG:  Solving for T, Initial residual = 4.0878e-07, Final residual = 4.0878e-07, No Iterations 0
ExecutionTime = 1.65 s  ClockTime = 1 s

Time = 3.7

DICPCG:  Solving for T, Initial residual = 0.00176729, Final residual = 4.01023e-07, No Iterations 2
DICPCG:  Solving for T, Initial residual = 3.99146e-07, Final residual = 3.99146e-07, No Iterations 0
DICPCG:  Solving for T, Initial residual = 3.99146e-07, Final residual = 3.99146e-07, No Iterations 0
ExecutionTime = 1.66 s  ClockTime = 1 s

Time = 3.75

DICPCG:  Solving for T, Initial residual = 0.00174415, Final residual = 3.91628e-07, No Iterations 2
DICPCG:  Solving for T, Initial residual = 3.89816e-07, Final residual = 3.89816e-07, No Iterations 0
DICPCG:  Solving for T, Initial residual = 3.89816e-07, Final residual = 3.89816e-07, No Iterations 0
ExecutionTime = 1.68 s  ClockTime = 1 s

Time = 3.8

DICPCG:  Solving for T, Initial residual = 0.00172154, Final residual = 3.82529e-07, No Iterations 2
DICPCG:  Solving for T, Initial residual = 3.80768e-07, Final residual = 3.80768e-07, No Iterations 0
DICPCG:  Solving for T, Initial residual = 3.80768e-07, Final residual = 3.80768e-07, No Iterations 0
ExecutionTime = 1.7 s  ClockTime = 1 s

Time = 3.85

DICPCG:  Solving for T, Initial residual = 0.00169946, Final residual = 3.73719e-07, No Iterations 2
DICPCG:  Solving for T, Initial residual = 3.72023e-07, Final residual = 3.72023e-07, No Iterations 0
DICPCG:  Solving for T, Initial residual = 3.72023e-07, Final residual = 3.72023e-07, No Iterations 0
ExecutionTime = 1.71 s  ClockTime = 1 s

Time = 3.9

DICPCG:  Solving for T, Initial residual = 0.00167797, Final residual = 3.65206e-07, No Iterations 2
DICPCG:  Solving for T, Initial residual = 3.63571e-07, Final residual = 3.63571e-07, No Iterations 0
DICPCG:  Solving for T, Initial residual = 3.63571e-07, Final residual = 3.63571e-07, No Iterations 0
ExecutionTime = 1.73 s  ClockTime = 1 s

Time = 3.95

DICPCG:  Solving for T, Initial residual = 0.00165704, Final residual = 3.56976e-07, No Iterations 2
DICPCG:  Solving for T, Initial residual = 3.55401e-07, Final residual = 3.55401e-07, No Iterations 0
DICPCG:  Solving for T, Initial residual = 3.55401e-07, Final residual = 3.55401e-07, No Iterations 0
ExecutionTime = 1.75 s  ClockTime = 1 s

Time = 4

DICPCG:  Solving for T, Initial residual = 0.00163665, Final residual = 3.49018e-07, No Iterations 2
DICPCG:  Solving for T, Initial residual = 3.47499e-07, Final residual = 3.47499e-07, No Iterations 0
DICPCG:  Solving for T, Initial residual = 3.47499e-07, Final residual = 3.47499e-07, No Iterations 0
ExecutionTime = 1.83 s  ClockTime = 1 s

Time = 4.05

DICPCG:  Solving for T, Initial residual = 0.00161679, Final residual = 3.41322e-07, No Iterations 2
DICPCG:  Solving for T, Initial residual = 3.39856e-07, Final residual = 3.39856e-07, No Iterations 0
DICPCG:  Solving for T, Initial residual = 3.39856e-07, Final residual = 3.39856e-07, No Iterations 0
ExecutionTime = 1.86 s  ClockTime = 2 s

Time = 4.1

DICPCG:  Solving for T, Initial residual = 0.00159742, Final residual = 3.33877e-07, No Iterations 2
DICPCG:  Solving for T, Initial residual = 3.32461e-07, Final residual = 3.32461e-07, No Iterations 0
DICPCG:  Solving for T, Initial residual = 3.32461e-07, Final residual = 3.32461e-07, No Iterations 0
ExecutionTime = 1.87 s  ClockTime = 2 s

Time = 4.15

DICPCG:  Solving for T, Initial residual = 0.00157854, Final residual = 3.26673e-07, No Iterations 2
DICPCG:  Solving for T, Initial residual = 3.25306e-07, Final residual = 3.25306e-07, No Iterations 0
DICPCG:  Solving for T, Initial residual = 3.25306e-07, Final residual = 3.25306e-07, No Iterations 0
ExecutionTime = 1.88 s  ClockTime = 2 s

Time = 4.2

DICPCG:  Solving for T, Initial residual = 0.00156013, Final residual = 3.19699e-07, No Iterations 2
DICPCG:  Solving for T, Initial residual = 3.1838e-07, Final residual = 3.1838e-07, No Iterations 0
DICPCG:  Solving for T, Initial residual = 3.1838e-07, Final residual = 3.1838e-07, No Iterations 0
ExecutionTime = 1.91 s  ClockTime = 2 s

Time = 4.25

DICPCG:  Solving for T, Initial residual = 0.00154216, Final residual = 3.12947e-07, No Iterations 2
DICPCG:  Solving for T, Initial residual = 3.11672e-07, Final residual = 3.11672e-07, No Iterations 0
DICPCG:  Solving for T, Initial residual = 3.11672e-07, Final residual = 3.11672e-07, No Iterations 0
ExecutionTime = 1.92 s  ClockTime = 2 s

Time = 4.3

DICPCG:  Solving for T, Initial residual = 0.00152463, Final residual = 3.06408e-07, No Iterations 2
DICPCG:  Solving for T, Initial residual = 3.05176e-07, Final residual = 3.05176e-07, No Iterations 0
DICPCG:  Solving for T, Initial residual = 3.05176e-07, Final residual = 3.05176e-07, No Iterations 0
ExecutionTime = 1.94 s  ClockTime = 2 s

Time = 4.35

DICPCG:  Solving for T, Initial residual = 0.00150752, Final residual = 3.00074e-07, No Iterations 2
DICPCG:  Solving for T, Initial residual = 2.98882e-07, Final residual = 2.98882e-07, No Iterations 0
DICPCG:  Solving for T, Initial residual = 2.98882e-07, Final residual = 2.98882e-07, No Iterations 0
ExecutionTime = 1.96 s  ClockTime = 2 s

Time = 4.4

DICPCG:  Solving for T, Initial residual = 0.00149081, Final residual = 2.93943e-07, No Iterations 2
DICPCG:  Solving for T, Initial residual = 2.9279e-07, Final residual = 2.9279e-07, No Iterations 0
DICPCG:  Solving for T, Initial residual = 2.9279e-07, Final residual = 2.9279e-07, No Iterations 0
ExecutionTime = 1.97 s  ClockTime = 2 s

Time = 4.45

DICPCG:  Solving for T, Initial residual = 0.00147449, Final residual = 2.88003e-07, No Iterations 2
DICPCG:  Solving for T, Initial residual = 2.86887e-07, Final residual = 2.86887e-07, No Iterations 0
DICPCG:  Solving for T, Initial residual = 2.86887e-07, Final residual = 2.86887e-07, No Iterations 0
ExecutionTime = 1.99 s  ClockTime = 2 s

Time = 4.5

DICPCG:  Solving for T, Initial residual = 0.00145849, Final residual = 2.82236e-07, No Iterations 2
DICPCG:  Solving for T, Initial residual = 2.81154e-07, Final residual = 2.81154e-07, No Iterations 0
DICPCG:  Solving for T, Initial residual = 2.81154e-07, Final residual = 2.81154e-07, No Iterations 0
ExecutionTime = 2.01 s  ClockTime = 2 s

Time = 4.55

DICPCG:  Solving for T, Initial residual = 0.0014428, Final residual = 2.76631e-07, No Iterations 2
DICPCG:  Solving for T, Initial residual = 2.75572e-07, Final residual = 2.75572e-07, No Iterations 0
DICPCG:  Solving for T, Initial residual = 2.75572e-07, Final residual = 2.75572e-07, No Iterations 0
ExecutionTime = 2.02 s  ClockTime = 2 s

Time = 4.6

DICPCG:  Solving for T, Initial residual = 0.0014274, Final residual = 2.7119e-07, No Iterations 2
DICPCG:  Solving for T, Initial residual = 2.70165e-07, Final residual = 2.70165e-07, No Iterations 0
DICPCG:  Solving for T, Initial residual = 2.70165e-07, Final residual = 2.70165e-07, No Iterations 0
ExecutionTime = 2.04 s  ClockTime = 2 s

Time = 4.65

DICPCG:  Solving for T, Initial residual = 0.00141234, Final residual = 2.65912e-07, No Iterations 2
DICPCG:  Solving for T, Initial residual = 2.64918e-07, Final residual = 2.64918e-07, No Iterations 0
DICPCG:  Solving for T, Initial residual = 2.64918e-07, Final residual = 2.64918e-07, No Iterations 0
ExecutionTime = 2.06 s  ClockTime = 2 s

Time = 4.7

DICPCG:  Solving for T, Initial residual = 0.00139762, Final residual = 2.6079e-07, No Iterations 2
DICPCG:  Solving for T, Initial residual = 2.59827e-07, Final residual = 2.59827e-07, No Iterations 0
DICPCG:  Solving for T, Initial residual = 2.59827e-07, Final residual = 2.59827e-07, No Iterations 0
ExecutionTime = 2.07 s  ClockTime = 2 s

Time = 4.75

DICPCG:  Solving for T, Initial residual = 0.00138321, Final residual = 2.5582e-07, No Iterations 2
DICPCG:  Solving for T, Initial residual = 2.54885e-07, Final residual = 2.54885e-07, No Iterations 0
DICPCG:  Solving for T, Initial residual = 2.54885e-07, Final residual = 2.54885e-07, No Iterations 0
ExecutionTime = 2.09 s  ClockTime = 2 s

Time = 4.8

DICPCG:  Solving for T, Initial residual = 0.00136911, Final residual = 2.50994e-07, No Iterations 2
DICPCG:  Solving for T, Initial residual = 2.50088e-07, Final residual = 2.50088e-07, No Iterations 0
DICPCG:  Solving for T, Initial residual = 2.50088e-07, Final residual = 2.50088e-07, No Iterations 0
ExecutionTime = 2.11 s  ClockTime = 2 s

Time = 4.85

DICPCG:  Solving for T, Initial residual = 0.00135532, Final residual = 2.46478e-07, No Iterations 2
DICPCG:  Solving for T, Initial residual = 2.45598e-07, Final residual = 2.45598e-07, No Iterations 0
DICPCG:  Solving for T, Initial residual = 2.45598e-07, Final residual = 2.45598e-07, No Iterations 0
ExecutionTime = 2.13 s  ClockTime = 2 s

Time = 4.9

DICPCG:  Solving for T, Initial residual = 0.00134181, Final residual = 2.42156e-07, No Iterations 2
DICPCG:  Solving for T, Initial residual = 2.41301e-07, Final residual = 2.41301e-07, No Iterations 0
DICPCG:  Solving for T, Initial residual = 2.41301e-07, Final residual = 2.41301e-07, No Iterations 0
ExecutionTime = 2.14 s  ClockTime = 2 s

Time = 4.95

DICPCG:  Solving for T, Initial residual = 0.00132859, Final residual = 2.37947e-07, No Iterations 2
DICPCG:  Solving for T, Initial residual = 2.37116e-07, Final residual = 2.37116e-07, No Iterations 0
DICPCG:  Solving for T, Initial residual = 2.37116e-07, Final residual = 2.37116e-07, No Iterations 0
ExecutionTime = 2.16 s  ClockTime = 2 s

Time = 5

DICPCG:  Solving for T, Initial residual = 0.00131564, Final residual = 2.33847e-07, No Iterations 2
DICPCG:  Solving for T, Initial residual = 2.33039e-07, Final residual = 2.33039e-07, No Iterations 0
DICPCG:  Solving for T, Initial residual = 2.33039e-07, Final residual = 2.33039e-07, No Iterations 0
ExecutionTime = 2.23 s  ClockTime = 2 s

Time = 5.05

DICPCG:  Solving for T, Initial residual = 0.00130296, Final residual = 2.29854e-07, No Iterations 2
DICPCG:  Solving for T, Initial residual = 2.29069e-07, Final residual = 2.29069e-07, No Iterations 0
DICPCG:  Solving for T, Initial residual = 2.29069e-07, Final residual = 2.29069e-07, No Iterations 0
ExecutionTime = 2.26 s  ClockTime = 2 s

Time = 5.1

DICPCG:  Solving for T, Initial residual = 0.00129053, Final residual = 2.25966e-07, No Iterations 2
DICPCG:  Solving for T, Initial residual = 2.25202e-07, Final residual = 2.25202e-07, No Iterations 0
DICPCG:  Solving for T, Initial residual = 2.25202e-07, Final residual = 2.25202e-07, No Iterations 0
ExecutionTime = 2.27 s  ClockTime = 2 s

Time = 5.15

DICPCG:  Solving for T, Initial residual = 0.00127836, Final residual = 2.22177e-07, No Iterations 2
DICPCG:  Solving for T, Initial residual = 2.21434e-07, Final residual = 2.21434e-07, No Iterations 0
DICPCG:  Solving for T, Initial residual = 2.21434e-07, Final residual = 2.21434e-07, No Iterations 0
ExecutionTime = 2.29 s  ClockTime = 2 s

Time = 5.2

DICPCG:  Solving for T, Initial residual = 0.00126642, Final residual = 2.18484e-07, No Iterations 2
DICPCG:  Solving for T, Initial residual = 2.17761e-07, Final residual = 2.17761e-07, No Iterations 0
DICPCG:  Solving for T, Initial residual = 2.17761e-07, Final residual = 2.17761e-07, No Iterations 0
ExecutionTime = 2.31 s  ClockTime = 2 s

Time = 5.25

DICPCG:  Solving for T, Initial residual = 0.00125473, Final residual = 2.14884e-07, No Iterations 2
DICPCG:  Solving for T, Initial residual = 2.14181e-07, Final residual = 2.14181e-07, No Iterations 0
DICPCG:  Solving for T, Initial residual = 2.14181e-07, Final residual = 2.14181e-07, No Iterations 0
ExecutionTime = 2.32 s  ClockTime = 2 s

Time = 5.3

DICPCG:  Solving for T, Initial residual = 0.00124326, Final residual = 2.11375e-07, No Iterations 2
DICPCG:  Solving for T, Initial residual = 2.10691e-07, Final residual = 2.10691e-07, No Iterations 0
DICPCG:  Solving for T, Initial residual = 2.10691e-07, Final residual = 2.10691e-07, No Iterations 0
ExecutionTime = 2.34 s  ClockTime = 2 s

Time = 5.35

DICPCG:  Solving for T, Initial residual = 0.00123196, Final residual = 2.07944e-07, No Iterations 2
DICPCG:  Solving for T, Initial residual = 2.07274e-07, Final residual = 2.07274e-07, No Iterations 0
DICPCG:  Solving for T, Initial residual = 2.07274e-07, Final residual = 2.07274e-07, No Iterations 0
ExecutionTime = 2.36 s  ClockTime = 2 s

Time = 5.4

DICPCG:  Solving for T, Initial residual = 0.00122083, Final residual = 2.0459e-07, No Iterations 2
DICPCG:  Solving for T, Initial residual = 2.03934e-07, Final residual = 2.03934e-07, No Iterations 0
DICPCG:  Solving for T, Initial residual = 2.03934e-07, Final residual = 2.03934e-07, No Iterations 0
ExecutionTime = 2.37 s  ClockTime = 2 s

Time = 5.45

DICPCG:  Solving for T, Initial residual = 0.00120989, Final residual = 2.01315e-07, No Iterations 2
DICPCG:  Solving for T, Initial residual = 2.00675e-07, Final residual = 2.00675e-07, No Iterations 0
DICPCG:  Solving for T, Initial residual = 2.00675e-07, Final residual = 2.00675e-07, No Iterations 0
ExecutionTime = 2.39 s  ClockTime = 2 s

Time = 5.5

DICPCG:  Solving for T, Initial residual = 0.00119915, Final residual = 1.9812e-07, No Iterations 2
DICPCG:  Solving for T, Initial residual = 1.97497e-07, Final residual = 1.97497e-07, No Iterations 0
DICPCG:  Solving for T, Initial residual = 1.97497e-07, Final residual = 1.97497e-07, No Iterations 0
ExecutionTime = 2.41 s  ClockTime = 2 s

Time = 5.55

DICPCG:  Solving for T, Initial residual = 0.00118861, Final residual = 1.95003e-07, No Iterations 2
DICPCG:  Solving for T, Initial residual = 1.94396e-07, Final residual = 1.94396e-07, No Iterations 0
DICPCG:  Solving for T, Initial residual = 1.94396e-07, Final residual = 1.94396e-07, No Iterations 0
ExecutionTime = 2.42 s  ClockTime = 2 s

Time = 5.6

DICPCG:  Solving for T, Initial residual = 0.00117827, Final residual = 1.91961e-07, No Iterations 2
DICPCG:  Solving for T, Initial residual = 1.91369e-07, Final residual = 1.91369e-07, No Iterations 0
DICPCG:  Solving for T, Initial residual = 1.91369e-07, Final residual = 1.91369e-07, No Iterations 0
ExecutionTime = 2.44 s  ClockTime = 2 s

Time = 5.65

DICPCG:  Solving for T, Initial residual = 0.00116812, Final residual = 1.88993e-07, No Iterations 2
DICPCG:  Solving for T, Initial residual = 1.88415e-07, Final residual = 1.88415e-07, No Iterations 0
DICPCG:  Solving for T, Initial residual = 1.88415e-07, Final residual = 1.88415e-07, No Iterations 0
ExecutionTime = 2.46 s  ClockTime = 2 s

Time = 5.7

DICPCG:  Solving for T, Initial residual = 0.00115815, Final residual = 1.86095e-07, No Iterations 2
DICPCG:  Solving for T, Initial residual = 1.85532e-07, Final residual = 1.85532e-07, No Iterations 0
DICPCG:  Solving for T, Initial residual = 1.85532e-07, Final residual = 1.85532e-07, No Iterations 0
ExecutionTime = 2.47 s  ClockTime = 2 s

Time = 5.75

DICPCG:  Solving for T, Initial residual = 0.00114836, Final residual = 1.83266e-07, No Iterations 2
DICPCG:  Solving for T, Initial residual = 1.82717e-07, Final residual = 1.82717e-07, No Iterations 0
DICPCG:  Solving for T, Initial residual = 1.82717e-07, Final residual = 1.82717e-07, No Iterations 0
ExecutionTime = 2.49 s  ClockTime = 2 s

Time = 5.8

DICPCG:  Solving for T, Initial residual = 0.00113874, Final residual = 1.80503e-07, No Iterations 2
DICPCG:  Solving for T, Initial residual = 1.79968e-07, Final residual = 1.79968e-07, No Iterations 0
DICPCG:  Solving for T, Initial residual = 1.79968e-07, Final residual = 1.79968e-07, No Iterations 0
ExecutionTime = 2.51 s  ClockTime = 2 s

Time = 5.85

DICPCG:  Solving for T, Initial residual = 0.00112929, Final residual = 1.77806e-07, No Iterations 2
DICPCG:  Solving for T, Initial residual = 1.77283e-07, Final residual = 1.77283e-07, No Iterations 0
DICPCG:  Solving for T, Initial residual = 1.77283e-07, Final residual = 1.77283e-07, No Iterations 0
ExecutionTime = 2.52 s  ClockTime = 2 s

Time = 5.9

DICPCG:  Solving for T, Initial residual = 0.00112001, Final residual = 1.7517e-07, No Iterations 2
DICPCG:  Solving for T, Initial residual = 1.7466e-07, Final residual = 1.7466e-07, No Iterations 0
DICPCG:  Solving for T, Initial residual = 1.7466e-07, Final residual = 1.7466e-07, No Iterations 0
ExecutionTime = 2.54 s  ClockTime = 2 s

Time = 5.95

DICPCG:  Solving for T, Initial residual = 0.00111089, Final residual = 1.72598e-07, No Iterations 2
DICPCG:  Solving for T, Initial residual = 1.721e-07, Final residual = 1.721e-07, No Iterations 0
DICPCG:  Solving for T, Initial residual = 1.721e-07, Final residual = 1.721e-07, No Iterations 0
ExecutionTime = 2.56 s  ClockTime = 2 s

Time = 6

DICPCG:  Solving for T, Initial residual = 0.00110193, Final residual = 1.70086e-07, No Iterations 2
DICPCG:  Solving for T, Initial residual = 1.696e-07, Final residual = 1.696e-07, No Iterations 0
DICPCG:  Solving for T, Initial residual = 1.696e-07, Final residual = 1.696e-07, No Iterations 0
ExecutionTime = 2.64 s  ClockTime = 2 s

Time = 6.05

DICPCG:  Solving for T, Initial residual = 0.00109312, Final residual = 1.67631e-07, No Iterations 2
DICPCG:  Solving for T, Initial residual = 1.67156e-07, Final residual = 1.67156e-07, No Iterations 0
DICPCG:  Solving for T, Initial residual = 1.67156e-07, Final residual = 1.67156e-07, No Iterations 0
ExecutionTime = 2.66 s  ClockTime = 2 s

Time = 6.1

DICPCG:  Solving for T, Initial residual = 0.00108445, Final residual = 1.65232e-07, No Iterations 2
DICPCG:  Solving for T, Initial residual = 1.64768e-07, Final residual = 1.64768e-07, No Iterations 0
DICPCG:  Solving for T, Initial residual = 1.64768e-07, Final residual = 1.64768e-07, No Iterations 0
ExecutionTime = 2.68 s  ClockTime = 2 s

Time = 6.15

DICPCG:  Solving for T, Initial residual = 0.00107594, Final residual = 1.62887e-07, No Iterations 2
DICPCG:  Solving for T, Initial residual = 1.62434e-07, Final residual = 1.62434e-07, No Iterations 0
DICPCG:  Solving for T, Initial residual = 1.62434e-07, Final residual = 1.62434e-07, No Iterations 0
ExecutionTime = 2.7 s  ClockTime = 2 s

Time = 6.2

DICPCG:  Solving for T, Initial residual = 0.00106757, Final residual = 1.60595e-07, No Iterations 2
DICPCG:  Solving for T, Initial residual = 1.60152e-07, Final residual = 1.60152e-07, No Iterations 0
DICPCG:  Solving for T, Initial residual = 1.60152e-07, Final residual = 1.60152e-07, No Iterations 0
ExecutionTime = 2.72 s  ClockTime = 2 s

Time = 6.25

DICPCG:  Solving for T, Initial residual = 0.00105932, Final residual = 1.58351e-07, No Iterations 2
DICPCG:  Solving for T, Initial residual = 1.57919e-07, Final residual = 1.57919e-07, No Iterations 0
DICPCG:  Solving for T, Initial residual = 1.57919e-07, Final residual = 1.57919e-07, No Iterations 0
ExecutionTime = 2.73 s  ClockTime = 2 s

Time = 6.3

DICPCG:  Solving for T, Initial residual = 0.00105117, Final residual = 1.56153e-07, No Iterations 2
DICPCG:  Solving for T, Initial residual = 1.55725e-07, Final residual = 1.55725e-07, No Iterations 0
DICPCG:  Solving for T, Initial residual = 1.55725e-07, Final residual = 1.55725e-07, No Iterations 0
ExecutionTime = 2.75 s  ClockTime = 2 s

Time = 6.35

DICPCG:  Solving for T, Initial residual = 0.00104311, Final residual = 1.53999e-07, No Iterations 2
DICPCG:  Solving for T, Initial residual = 1.5358e-07, Final residual = 1.5358e-07, No Iterations 0
DICPCG:  Solving for T, Initial residual = 1.5358e-07, Final residual = 1.5358e-07, No Iterations 0
ExecutionTime = 2.77 s  ClockTime = 2 s

Time = 6.4

DICPCG:  Solving for T, Initial residual = 0.00103519, Final residual = 1.51892e-07, No Iterations 2
DICPCG:  Solving for T, Initial residual = 1.51483e-07, Final residual = 1.51483e-07, No Iterations 0
DICPCG:  Solving for T, Initial residual = 1.51483e-07, Final residual = 1.51483e-07, No Iterations 0
ExecutionTime = 2.78 s  ClockTime = 2 s

Time = 6.45

DICPCG:  Solving for T, Initial residual = 0.00102739, Final residual = 1.49832e-07, No Iterations 2
DICPCG:  Solving for T, Initial residual = 1.49431e-07, Final residual = 1.49431e-07, No Iterations 0
DICPCG:  Solving for T, Initial residual = 1.49431e-07, Final residual = 1.49431e-07, No Iterations 0
ExecutionTime = 2.8 s  ClockTime = 2 s

Time = 6.5

DICPCG:  Solving for T, Initial residual = 0.00101972, Final residual = 1.47816e-07, No Iterations 2
DICPCG:  Solving for T, Initial residual = 1.47425e-07, Final residual = 1.47425e-07, No Iterations 0
DICPCG:  Solving for T, Initial residual = 1.47425e-07, Final residual = 1.47425e-07, No Iterations 0
ExecutionTime = 2.82 s  ClockTime = 2 s

Time = 6.55

DICPCG:  Solving for T, Initial residual = 0.00101216, Final residual = 1.45844e-07, No Iterations 2
DICPCG:  Solving for T, Initial residual = 1.45461e-07, Final residual = 1.45461e-07, No Iterations 0
DICPCG:  Solving for T, Initial residual = 1.45461e-07, Final residual = 1.45461e-07, No Iterations 0
ExecutionTime = 2.83 s  ClockTime = 2 s

Time = 6.6

DICPCG:  Solving for T, Initial residual = 0.00100473, Final residual = 1.43914e-07, No Iterations 2
DICPCG:  Solving for T, Initial residual = 1.43539e-07, Final residual = 1.43539e-07, No Iterations 0
DICPCG:  Solving for T, Initial residual = 1.43539e-07, Final residual = 1.43539e-07, No Iterations 0
ExecutionTime = 2.85 s  ClockTime = 3 s

Time = 6.65

DICPCG:  Solving for T, Initial residual = 0.000997407, Final residual = 1.42024e-07, No Iterations 2
DICPCG:  Solving for T, Initial residual = 1.41658e-07, Final residual = 1.41658e-07, No Iterations 0
DICPCG:  Solving for T, Initial residual = 1.41658e-07, Final residual = 1.41658e-07, No Iterations 0
ExecutionTime = 2.87 s  ClockTime = 3 s

Time = 6.7

DICPCG:  Solving for T, Initial residual = 0.0009902, Final residual = 1.40175e-07, No Iterations 2
DICPCG:  Solving for T, Initial residual = 1.39816e-07, Final residual = 1.39816e-07, No Iterations 0
DICPCG:  Solving for T, Initial residual = 1.39816e-07, Final residual = 1.39816e-07, No Iterations 0
ExecutionTime = 2.88 s  ClockTime = 3 s

Time = 6.75

DICPCG:  Solving for T, Initial residual = 0.000983102, Final residual = 1.38364e-07, No Iterations 2
DICPCG:  Solving for T, Initial residual = 1.38013e-07, Final residual = 1.38013e-07, No Iterations 0
DICPCG:  Solving for T, Initial residual = 1.38013e-07, Final residual = 1.38013e-07, No Iterations 0
ExecutionTime = 2.9 s  ClockTime = 3 s

Time = 6.8

DICPCG:  Solving for T, Initial residual = 0.000976113, Final residual = 1.36591e-07, No Iterations 2
DICPCG:  Solving for T, Initial residual = 1.36247e-07, Final residual = 1.36247e-07, No Iterations 0
DICPCG:  Solving for T, Initial residual = 1.36247e-07, Final residual = 1.36247e-07, No Iterations 0
ExecutionTime = 2.92 s  ClockTime = 3 s

Time = 6.85

DICPCG:  Solving for T, Initial residual = 0.000969229, Final residual = 1.34854e-07, No Iterations 2
DICPCG:  Solving for T, Initial residual = 1.34517e-07, Final residual = 1.34517e-07, No Iterations 0
DICPCG:  Solving for T, Initial residual = 1.34517e-07, Final residual = 1.34517e-07, No Iterations 0
ExecutionTime = 2.93 s  ClockTime = 3 s

Time = 6.9

DICPCG:  Solving for T, Initial residual = 0.000962448, Final residual = 1.33154e-07, No Iterations 2
DICPCG:  Solving for T, Initial residual = 1.32824e-07, Final residual = 1.32824e-07, No Iterations 0
DICPCG:  Solving for T, Initial residual = 1.32824e-07, Final residual = 1.32824e-07, No Iterations 0
ExecutionTime = 2.95 s  ClockTime = 3 s

Time = 6.95

DICPCG:  Solving for T, Initial residual = 0.000955767, Final residual = 1.31488e-07, No Iterations 2
DICPCG:  Solving for T, Initial residual = 1.31165e-07, Final residual = 1.31165e-07, No Iterations 0
DICPCG:  Solving for T, Initial residual = 1.31165e-07, Final residual = 1.31165e-07, No Iterations 0
ExecutionTime = 2.97 s  ClockTime = 3 s

Time = 7

DICPCG:  Solving for T, Initial residual = 0.000949185, Final residual = 1.29877e-07, No Iterations 2
DICPCG:  Solving for T, Initial residual = 1.2956e-07, Final residual = 1.2956e-07, No Iterations 0
DICPCG:  Solving for T, Initial residual = 1.2956e-07, Final residual = 1.2956e-07, No Iterations 0
ExecutionTime = 3.07 s  ClockTime = 3 s

Time = 7.05

DICPCG:  Solving for T, Initial residual = 0.000942699, Final residual = 1.28328e-07, No Iterations 2
DICPCG:  Solving for T, Initial residual = 1.28017e-07, Final residual = 1.28017e-07, No Iterations 0
DICPCG:  Solving for T, Initial residual = 1.28017e-07, Final residual = 1.28017e-07, No Iterations 0
ExecutionTime = 3.09 s  ClockTime = 3 s

Time = 7.1

DICPCG:  Solving for T, Initial residual = 0.000936308, Final residual = 1.26807e-07, No Iterations 2
DICPCG:  Solving for T, Initial residual = 1.26503e-07, Final residual = 1.26503e-07, No Iterations 0
DICPCG:  Solving for T, Initial residual = 1.26503e-07, Final residual = 1.26503e-07, No Iterations 0
ExecutionTime = 3.11 s  ClockTime = 3 s

Time = 7.15

DICPCG:  Solving for T, Initial residual = 0.000930009, Final residual = 1.25316e-07, No Iterations 2
DICPCG:  Solving for T, Initial residual = 1.25017e-07, Final residual = 1.25017e-07, No Iterations 0
DICPCG:  Solving for T, Initial residual = 1.25017e-07, Final residual = 1.25017e-07, No Iterations 0
ExecutionTime = 3.12 s  ClockTime = 3 s

Time = 7.2

DICPCG:  Solving for T, Initial residual = 0.000923801, Final residual = 1.23852e-07, No Iterations 2
DICPCG:  Solving for T, Initial residual = 1.23559e-07, Final residual = 1.23559e-07, No Iterations 0
DICPCG:  Solving for T, Initial residual = 1.23559e-07, Final residual = 1.23559e-07, No Iterations 0
ExecutionTime = 3.14 s  ClockTime = 3 s

Time = 7.25

DICPCG:  Solving for T, Initial residual = 0.000917679, Final residual = 1.22416e-07, No Iterations 2
DICPCG:  Solving for T, Initial residual = 1.22129e-07, Final residual = 1.22129e-07, No Iterations 0
DICPCG:  Solving for T, Initial residual = 1.22129e-07, Final residual = 1.22129e-07, No Iterations 0
ExecutionTime = 3.16 s  ClockTime = 3 s

Time = 7.3

DICPCG:  Solving for T, Initial residual = 0.000911613, Final residual = 1.21003e-07, No Iterations 2
DICPCG:  Solving for T, Initial residual = 1.20718e-07, Final residual = 1.20718e-07, No Iterations 0
DICPCG:  Solving for T, Initial residual = 1.20718e-07, Final residual = 1.20718e-07, No Iterations 0
ExecutionTime = 3.17 s  ClockTime = 3 s

Time = 7.35

DICPCG:  Solving for T, Initial residual = 0.000905606, Final residual = 1.19612e-07, No Iterations 2
DICPCG:  Solving for T, Initial residual = 1.19332e-07, Final residual = 1.19332e-07, No Iterations 0
DICPCG:  Solving for T, Initial residual = 1.19332e-07, Final residual = 1.19332e-07, No Iterations 0
ExecutionTime = 3.19 s  ClockTime = 3 s

Time = 7.4

DICPCG:  Solving for T, Initial residual = 0.000899677, Final residual = 1.18246e-07, No Iterations 2
DICPCG:  Solving for T, Initial residual = 1.17972e-07, Final residual = 1.17972e-07, No Iterations 0
DICPCG:  Solving for T, Initial residual = 1.17972e-07, Final residual = 1.17972e-07, No Iterations 0
ExecutionTime = 3.21 s  ClockTime = 3 s

Time = 7.45

DICPCG:  Solving for T, Initial residual = 0.000893831, Final residual = 1.16905e-07, No Iterations 2
DICPCG:  Solving for T, Initial residual = 1.16636e-07, Final residual = 1.16636e-07, No Iterations 0
DICPCG:  Solving for T, Initial residual = 1.16636e-07, Final residual = 1.16636e-07, No Iterations 0
ExecutionTime = 3.22 s  ClockTime = 3 s

Time = 7.5

DICPCG:  Solving for T, Initial residual = 0.000888065, Final residual = 1.15589e-07, No Iterations 2
DICPCG:  Solving for T, Initial residual = 1.15324e-07, Final residual = 1.15324e-07, No Iterations 0
DICPCG:  Solving for T, Initial residual = 1.15324e-07, Final residual = 1.15324e-07, No Iterations 0
ExecutionTime = 3.24 s  ClockTime = 3 s

Time = 7.55

DICPCG:  Solving for T, Initial residual = 0.000882377, Final residual = 1.14296e-07, No Iterations 2
DICPCG:  Solving for T, Initial residual = 1.14037e-07, Final residual = 1.14037e-07, No Iterations 0
DICPCG:  Solving for T, Initial residual = 1.14037e-07, Final residual = 1.14037e-07, No Iterations 0
ExecutionTime = 3.26 s  ClockTime = 3 s

Time = 7.6

DICPCG:  Solving for T, Initial residual = 0.000876767, Final residual = 1.13026e-07, No Iterations 2
DICPCG:  Solving for T, Initial residual = 1.12772e-07, Final residual = 1.12772e-07, No Iterations 0
DICPCG:  Solving for T, Initial residual = 1.12772e-07, Final residual = 1.12772e-07, No Iterations 0
ExecutionTime = 3.27 s  ClockTime = 3 s

Time = 7.65

DICPCG:  Solving for T, Initial residual = 0.000871232, Final residual = 1.1178e-07, No Iterations 2
DICPCG:  Solving for T, Initial residual = 1.1153e-07, Final residual = 1.1153e-07, No Iterations 0
DICPCG:  Solving for T, Initial residual = 1.1153e-07, Final residual = 1.1153e-07, No Iterations 0
ExecutionTime = 3.29 s  ClockTime = 3 s

Time = 7.7

DICPCG:  Solving for T, Initial residual = 0.000865771, Final residual = 1.10555e-07, No Iterations 2
DICPCG:  Solving for T, Initial residual = 1.1031e-07, Final residual = 1.1031e-07, No Iterations 0
DICPCG:  Solving for T, Initial residual = 1.1031e-07, Final residual = 1.1031e-07, No Iterations 0
ExecutionTime = 3.31 s  ClockTime = 3 s

Time = 7.75

DICPCG:  Solving for T, Initial residual = 0.000860383, Final residual = 1.09352e-07, No Iterations 2
DICPCG:  Solving for T, Initial residual = 1.09111e-07, Final residual = 1.09111e-07, No Iterations 0
DICPCG:  Solving for T, Initial residual = 1.09111e-07, Final residual = 1.09111e-07, No Iterations 0
ExecutionTime = 3.32 s  ClockTime = 3 s

Time = 7.8

DICPCG:  Solving for T, Initial residual = 0.000855066, Final residual = 1.08171e-07, No Iterations 2
DICPCG:  Solving for T, Initial residual = 1.07934e-07, Final residual = 1.07934e-07, No Iterations 0
DICPCG:  Solving for T, Initial residual = 1.07934e-07, Final residual = 1.07934e-07, No Iterations 0
ExecutionTime = 3.34 s  ClockTime = 3 s

Time = 7.85

DICPCG:  Solving for T, Initial residual = 0.000849819, Final residual = 1.07011e-07, No Iterations 2
DICPCG:  Solving for T, Initial residual = 1.06778e-07, Final residual = 1.06778e-07, No Iterations 0
DICPCG:  Solving for T, Initial residual = 1.06778e-07, Final residual = 1.06778e-07, No Iterations 0
ExecutionTime = 3.36 s  ClockTime = 3 s

Time = 7.9

DICPCG:  Solving for T, Initial residual = 0.000844641, Final residual = 1.05872e-07, No Iterations 2
DICPCG:  Solving for T, Initial residual = 1.05643e-07, Final residual = 1.05643e-07, No Iterations 0
DICPCG:  Solving for T, Initial residual = 1.05643e-07, Final residual = 1.05643e-07, No Iterations 0
ExecutionTime = 3.37 s  ClockTime = 3 s

Time = 7.95

DICPCG:  Solving for T, Initial residual = 0.00083953, Final residual = 1.04752e-07, No Iterations 2
DICPCG:  Solving for T, Initial residual = 1.04528e-07, Final residual = 1.04528e-07, No Iterations 0
DICPCG:  Solving for T, Initial residual = 1.04528e-07, Final residual = 1.04528e-07, No Iterations 0
ExecutionTime = 3.39 s  ClockTime = 3 s

Time = 8

DICPCG:  Solving for T, Initial residual = 0.000834484, Final residual = 1.03652e-07, No Iterations 2
DICPCG:  Solving for T, Initial residual = 1.03431e-07, Final residual = 1.03431e-07, No Iterations 0
DICPCG:  Solving for T, Initial residual = 1.03431e-07, Final residual = 1.03431e-07, No Iterations 0
ExecutionTime = 3.48 s  ClockTime = 3 s

Time = 8.05

DICPCG:  Solving for T, Initial residual = 0.000829504, Final residual = 1.0257e-07, No Iterations 2
DICPCG:  Solving for T, Initial residual = 1.02354e-07, Final residual = 1.02354e-07, No Iterations 0
DICPCG:  Solving for T, Initial residual = 1.02354e-07, Final residual = 1.02354e-07, No Iterations 0
ExecutionTime = 3.5 s  ClockTime = 3 s

Time = 8.1

DICPCG:  Solving for T, Initial residual = 0.000824586, Final residual = 1.01507e-07, No Iterations 2
DICPCG:  Solving for T, Initial residual = 1.01294e-07, Final residual = 1.01294e-07, No Iterations 0
DICPCG:  Solving for T, Initial residual = 1.01294e-07, Final residual = 1.01294e-07, No Iterations 0
ExecutionTime = 3.52 s  ClockTime = 3 s

Time = 8.15

DICPCG:  Solving for T, Initial residual = 0.000819731, Final residual = 1.00463e-07, No Iterations 2
DICPCG:  Solving for T, Initial residual = 1.00253e-07, Final residual = 1.00253e-07, No Iterations 0
DICPCG:  Solving for T, Initial residual = 1.00253e-07, Final residual = 1.00253e-07, No Iterations 0
ExecutionTime = 3.53 s  ClockTime = 3 s

Time = 8.2

DICPCG:  Solving for T, Initial residual = 0.000814937, Final residual = 9.94354e-08, No Iterations 2
DICPCG:  Solving for T, Initial residual = 9.92295e-08, Final residual = 9.92295e-08, No Iterations 0
DICPCG:  Solving for T, Initial residual = 9.92295e-08, Final residual = 9.92295e-08, No Iterations 0
ExecutionTime = 3.55 s  ClockTime = 3 s

Time = 8.25

DICPCG:  Solving for T, Initial residual = 0.000810203, Final residual = 9.84254e-08, No Iterations 2
DICPCG:  Solving for T, Initial residual = 9.8223e-08, Final residual = 9.8223e-08, No Iterations 0
DICPCG:  Solving for T, Initial residual = 9.8223e-08, Final residual = 9.8223e-08, No Iterations 0
ExecutionTime = 3.57 s  ClockTime = 3 s

Time = 8.3

DICPCG:  Solving for T, Initial residual = 0.000805528, Final residual = 9.74324e-08, No Iterations 2
DICPCG:  Solving for T, Initial residual = 9.72333e-08, Final residual = 9.72333e-08, No Iterations 0
DICPCG:  Solving for T, Initial residual = 9.72333e-08, Final residual = 9.72333e-08, No Iterations 0
ExecutionTime = 3.58 s  ClockTime = 3 s

Time = 8.35

DICPCG:  Solving for T, Initial residual = 0.000800911, Final residual = 9.64562e-08, No Iterations 2
DICPCG:  Solving for T, Initial residual = 9.62605e-08, Final residual = 9.62605e-08, No Iterations 0
DICPCG:  Solving for T, Initial residual = 9.62605e-08, Final residual = 9.62605e-08, No Iterations 0
ExecutionTime = 3.6 s  ClockTime = 3 s

Time = 8.4

DICPCG:  Solving for T, Initial residual = 0.00079633, Final residual = 9.54939e-08, No Iterations 2
DICPCG:  Solving for T, Initial residual = 9.53002e-08, Final residual = 9.53002e-08, No Iterations 0
DICPCG:  Solving for T, Initial residual = 9.53002e-08, Final residual = 9.53002e-08, No Iterations 0
ExecutionTime = 3.62 s  ClockTime = 3 s

Time = 8.45

DICPCG:  Solving for T, Initial residual = 0.000791785, Final residual = 9.4546e-08, No Iterations 2
DICPCG:  Solving for T, Initial residual = 9.43545e-08, Final residual = 9.43545e-08, No Iterations 0
DICPCG:  Solving for T, Initial residual = 9.43545e-08, Final residual = 9.43545e-08, No Iterations 0
ExecutionTime = 3.63 s  ClockTime = 3 s

Time = 8.5

DICPCG:  Solving for T, Initial residual = 0.000787288, Final residual = 9.36127e-08, No Iterations 2
DICPCG:  Solving for T, Initial residual = 9.34244e-08, Final residual = 9.34244e-08, No Iterations 0
DICPCG:  Solving for T, Initial residual = 9.34244e-08, Final residual = 9.34244e-08, No Iterations 0
ExecutionTime = 3.65 s  ClockTime = 3 s

Time = 8.55

DICPCG:  Solving for T, Initial residual = 0.000782846, Final residual = 9.26947e-08, No Iterations 2
DICPCG:  Solving for T, Initial residual = 9.25094e-08, Final residual = 9.25094e-08, No Iterations 0
DICPCG:  Solving for T, Initial residual = 9.25094e-08, Final residual = 9.25094e-08, No Iterations 0
ExecutionTime = 3.67 s  ClockTime = 3 s

Time = 8.6

DICPCG:  Solving for T, Initial residual = 0.000778456, Final residual = 9.17916e-08, No Iterations 2
DICPCG:  Solving for T, Initial residual = 9.16092e-08, Final residual = 9.16092e-08, No Iterations 0
DICPCG:  Solving for T, Initial residual = 9.16092e-08, Final residual = 9.16092e-08, No Iterations 0
ExecutionTime = 3.68 s  ClockTime = 3 s

Time = 8.65

DICPCG:  Solving for T, Initial residual = 0.000774119, Final residual = 9.0903e-08, No Iterations 2
DICPCG:  Solving for T, Initial residual = 9.07236e-08, Final residual = 9.07236e-08, No Iterations 0
DICPCG:  Solving for T, Initial residual = 9.07236e-08, Final residual = 9.07236e-08, No Iterations 0
ExecutionTime = 3.7 s  ClockTime = 3 s

Time = 8.7

DICPCG:  Solving for T, Initial residual = 0.000769832, Final residual = 9.00287e-08, No Iterations 2
DICPCG:  Solving for T, Initial residual = 8.98522e-08, Final residual = 8.98522e-08, No Iterations 0
DICPCG:  Solving for T, Initial residual = 8.98522e-08, Final residual = 8.98522e-08, No Iterations 0
ExecutionTime = 3.72 s  ClockTime = 3 s

Time = 8.75

DICPCG:  Solving for T, Initial residual = 0.000765597, Final residual = 8.91684e-08, No Iterations 2
DICPCG:  Solving for T, Initial residual = 8.89947e-08, Final residual = 8.89947e-08, No Iterations 0
DICPCG:  Solving for T, Initial residual = 8.89947e-08, Final residual = 8.89947e-08, No Iterations 0
ExecutionTime = 3.74 s  ClockTime = 3 s

Time = 8.8

DICPCG:  Solving for T, Initial residual = 0.000761411, Final residual = 8.83218e-08, No Iterations 2
DICPCG:  Solving for T, Initial residual = 8.81508e-08, Final residual = 8.81508e-08, No Iterations 0
DICPCG:  Solving for T, Initial residual = 8.81508e-08, Final residual = 8.81508e-08, No Iterations 0
ExecutionTime = 3.75 s  ClockTime = 3 s

Time = 8.85

DICPCG:  Solving for T, Initial residual = 0.000757274, Final residual = 8.74888e-08, No Iterations 2
DICPCG:  Solving for T, Initial residual = 8.73204e-08, Final residual = 8.73204e-08, No Iterations 0
DICPCG:  Solving for T, Initial residual = 8.73204e-08, Final residual = 8.73204e-08, No Iterations 0
ExecutionTime = 3.77 s  ClockTime = 3 s

Time = 8.9

DICPCG:  Solving for T, Initial residual = 0.000753184, Final residual = 8.66688e-08, No Iterations 2
DICPCG:  Solving for T, Initial residual = 8.65031e-08, Final residual = 8.65031e-08, No Iterations 0
DICPCG:  Solving for T, Initial residual = 8.65031e-08, Final residual = 8.65031e-08, No Iterations 0
ExecutionTime = 3.79 s  ClockTime = 3 s

Time = 8.95

DICPCG:  Solving for T, Initial residual = 0.000749142, Final residual = 8.58617e-08, No Iterations 2
DICPCG:  Solving for T, Initial residual = 8.56986e-08, Final residual = 8.56986e-08, No Iterations 0
DICPCG:  Solving for T, Initial residual = 8.56986e-08, Final residual = 8.56986e-08, No Iterations 0
ExecutionTime = 3.8 s  ClockTime = 3 s

Time = 9

DICPCG:  Solving for T, Initial residual = 0.000745146, Final residual = 8.50672e-08, No Iterations 2
DICPCG:  Solving for T, Initial residual = 8.49066e-08, Final residual = 8.49066e-08, No Iterations 0
DICPCG:  Solving for T, Initial residual = 8.49066e-08, Final residual = 8.49066e-08, No Iterations 0
ExecutionTime = 3.87 s  ClockTime = 4 s

Time = 9.05

DICPCG:  Solving for T, Initial residual = 0.000741196, Final residual = 8.42851e-08, No Iterations 2
DICPCG:  Solving for T, Initial residual = 8.41269e-08, Final residual = 8.41269e-08, No Iterations 0
DICPCG:  Solving for T, Initial residual = 8.41269e-08, Final residual = 8.41269e-08, No Iterations 0
ExecutionTime = 3.9 s  ClockTime = 4 s

Time = 9.1

DICPCG:  Solving for T, Initial residual = 0.00073729, Final residual = 8.3515e-08, No Iterations 2
DICPCG:  Solving for T, Initial residual = 8.33592e-08, Final residual = 8.33592e-08, No Iterations 0
DICPCG:  Solving for T, Initial residual = 8.33592e-08, Final residual = 8.33592e-08, No Iterations 0
ExecutionTime = 3.92 s  ClockTime = 4 s

Time = 9.15

DICPCG:  Solving for T, Initial residual = 0.000733429, Final residual = 8.27568e-08, No Iterations 2
DICPCG:  Solving for T, Initial residual = 8.26034e-08, Final residual = 8.26034e-08, No Iterations 0
DICPCG:  Solving for T, Initial residual = 8.26034e-08, Final residual = 8.26034e-08, No Iterations 0
ExecutionTime = 3.94 s  ClockTime = 4 s

Time = 9.2

DICPCG:  Solving for T, Initial residual = 0.00072961, Final residual = 8.20102e-08, No Iterations 2
DICPCG:  Solving for T, Initial residual = 8.18591e-08, Final residual = 8.18591e-08, No Iterations 0
DICPCG:  Solving for T, Initial residual = 8.18591e-08, Final residual = 8.18591e-08, No Iterations 0
ExecutionTime = 3.95 s  ClockTime = 4 s

Time = 9.25

DICPCG:  Solving for T, Initial residual = 0.000725835, Final residual = 8.1275e-08, No Iterations 2
DICPCG:  Solving for T, Initial residual = 8.11262e-08, Final residual = 8.11262e-08, No Iterations 0
DICPCG:  Solving for T, Initial residual = 8.11262e-08, Final residual = 8.11262e-08, No Iterations 0
ExecutionTime = 3.97 s  ClockTime = 4 s

Time = 9.3

DICPCG:  Solving for T, Initial residual = 0.000722101, Final residual = 8.05511e-08, No Iterations 2
DICPCG:  Solving for T, Initial residual = 8.04045e-08, Final residual = 8.04045e-08, No Iterations 0
DICPCG:  Solving for T, Initial residual = 8.04045e-08, Final residual = 8.04045e-08, No Iterations 0
ExecutionTime = 3.99 s  ClockTime = 4 s

Time = 9.35

DICPCG:  Solving for T, Initial residual = 0.000718408, Final residual = 7.98382e-08, No Iterations 2
DICPCG:  Solving for T, Initial residual = 7.96938e-08, Final residual = 7.96938e-08, No Iterations 0
DICPCG:  Solving for T, Initial residual = 7.96938e-08, Final residual = 7.96938e-08, No Iterations 0
ExecutionTime = 4 s  ClockTime = 4 s

Time = 9.4

DICPCG:  Solving for T, Initial residual = 0.000714756, Final residual = 7.91364e-08, No Iterations 2
DICPCG:  Solving for T, Initial residual = 7.89941e-08, Final residual = 7.89941e-08, No Iterations 0
DICPCG:  Solving for T, Initial residual = 7.89941e-08, Final residual = 7.89941e-08, No Iterations 0
ExecutionTime = 4.02 s  ClockTime = 4 s

Time = 9.45

DICPCG:  Solving for T, Initial residual = 0.000711144, Final residual = 9.93901e-07, No Iterations 1
DICPCG:  Solving for T, Initial residual = 9.92125e-07, Final residual = 9.92125e-07, No Iterations 0
DICPCG:  Solving for T, Initial residual = 9.92125e-07, Final residual = 9.92125e-07, No Iterations 0
ExecutionTime = 4.04 s  ClockTime = 4 s

Time = 9.5

DICPCG:  Solving for T, Initial residual = 0.000707593, Final residual = 9.90605e-07, No Iterations 1
DICPCG:  Solving for T, Initial residual = 9.88845e-07, Final residual = 9.88845e-07, No Iterations 0
DICPCG:  Solving for T, Initial residual = 9.88845e-07, Final residual = 9.88845e-07, No Iterations 0
ExecutionTime = 4.05 s  ClockTime = 4 s

Time = 9.55

DICPCG:  Solving for T, Initial residual = 0.000704073, Final residual = 9.88531e-07, No Iterations 1
DICPCG:  Solving for T, Initial residual = 9.86785e-07, Final residual = 9.86785e-07, No Iterations 0
DICPCG:  Solving for T, Initial residual = 9.86785e-07, Final residual = 9.86785e-07, No Iterations 0
ExecutionTime = 4.07 s  ClockTime = 4 s

Time = 9.6

DICPCG:  Solving for T, Initial residual = 0.000700572, Final residual = 9.86228e-07, No Iterations 1
DICPCG:  Solving for T, Initial residual = 9.84489e-07, Final residual = 9.84489e-07, No Iterations 0
DICPCG:  Solving for T, Initial residual = 9.84489e-07, Final residual = 9.84489e-07, No Iterations 0
ExecutionTime = 4.09 s  ClockTime = 4 s

Time = 9.65

DICPCG:  Solving for T, Initial residual = 0.000697092, Final residual = 9.83451e-07, No Iterations 1
DICPCG:  Solving for T, Initial residual = 9.81714e-07, Final residual = 9.81714e-07, No Iterations 0
DICPCG:  Solving for T, Initial residual = 9.81714e-07, Final residual = 9.81714e-07, No Iterations 0
ExecutionTime = 4.1 s  ClockTime = 4 s

Time = 9.7

DICPCG:  Solving for T, Initial residual = 0.000693637, Final residual = 9.80229e-07, No Iterations 1
DICPCG:  Solving for T, Initial residual = 9.78507e-07, Final residual = 9.78507e-07, No Iterations 0
DICPCG:  Solving for T, Initial residual = 9.78507e-07, Final residual = 9.78507e-07, No Iterations 0
ExecutionTime = 4.12 s  ClockTime = 4 s

Time = 9.75

DICPCG:  Solving for T, Initial residual = 0.000690218, Final residual = 9.76636e-07, No Iterations 1
DICPCG:  Solving for T, Initial residual = 9.74931e-07, Final residual = 9.74931e-07, No Iterations 0
DICPCG:  Solving for T, Initial residual = 9.74931e-07, Final residual = 9.74931e-07, No Iterations 0
ExecutionTime = 4.14 s  ClockTime = 4 s

Time = 9.8

DICPCG:  Solving for T, Initial residual = 0.000686833, Final residual = 9.72716e-07, No Iterations 1
DICPCG:  Solving for T, Initial residual = 9.71027e-07, Final residual = 9.71027e-07, No Iterations 0
DICPCG:  Solving for T, Initial residual = 9.71027e-07, Final residual = 9.71027e-07, No Iterations 0
ExecutionTime = 4.15 s  ClockTime = 4 s

Time = 9.85

DICPCG:  Solving for T, Initial residual = 0.000683484, Final residual = 9.68522e-07, No Iterations 1
DICPCG:  Solving for T, Initial residual = 9.6685e-07, Final residual = 9.6685e-07, No Iterations 0
DICPCG:  Solving for T, Initial residual = 9.6685e-07, Final residual = 9.6685e-07, No Iterations 0
ExecutionTime = 4.17 s  ClockTime = 4 s

Time = 9.9

DICPCG:  Solving for T, Initial residual = 0.000680169, Final residual = 9.64104e-07, No Iterations 1
DICPCG:  Solving for T, Initial residual = 9.6245e-07, Final residual = 9.6245e-07, No Iterations 0
DICPCG:  Solving for T, Initial residual = 9.6245e-07, Final residual = 9.6245e-07, No Iterations 0
ExecutionTime = 4.19 s  ClockTime = 4 s

Time = 9.95

DICPCG:  Solving for T, Initial residual = 0.000676888, Final residual = 9.59503e-07, No Iterations 1
DICPCG:  Solving for T, Initial residual = 9.57865e-07, Final residual = 9.57865e-07, No Iterations 0
DICPCG:  Solving for T, Initial residual = 9.57865e-07, Final residual = 9.57865e-07, No Iterations 0
ExecutionTime = 4.2 s  ClockTime = 4 s

Time = 10

DICPCG:  Solving for T, Initial residual = 0.000673641, Final residual = 9.54756e-07, No Iterations 1
DICPCG:  Solving for T, Initial residual = 9.53136e-07, Final residual = 9.53136e-07, No Iterations 0
DICPCG:  Solving for T, Initial residual = 9.53136e-07, Final residual = 9.53136e-07, No Iterations 0
ExecutionTime = 4.28 s  ClockTime = 4 s

Time = 10.05

DICPCG:  Solving for T, Initial residual = 0.000670427, Final residual = 9.50054e-07, No Iterations 1
DICPCG:  Solving for T, Initial residual = 9.48451e-07, Final residual = 9.48451e-07, No Iterations 0
DICPCG:  Solving for T, Initial residual = 9.48451e-07, Final residual = 9.48451e-07, No Iterations 0
ExecutionTime = 4.29 s  ClockTime = 4 s

Time = 10.1

DICPCG:  Solving for T, Initial residual = 0.000667245, Final residual = 9.45682e-07, No Iterations 1
DICPCG:  Solving for T, Initial residual = 9.44095e-07, Final residual = 9.44095e-07, No Iterations 0
DICPCG:  Solving for T, Initial residual = 9.44095e-07, Final residual = 9.44095e-07, No Iterations 0
ExecutionTime = 4.32 s  ClockTime = 4 s

Time = 10.15

DICPCG:  Solving for T, Initial residual = 0.000664096, Final residual = 9.41215e-07, No Iterations 1
DICPCG:  Solving for T, Initial residual = 9.39644e-07, Final residual = 9.39644e-07, No Iterations 0
DICPCG:  Solving for T, Initial residual = 9.39644e-07, Final residual = 9.39644e-07, No Iterations 0
ExecutionTime = 4.34 s  ClockTime = 4 s

Time = 10.2

DICPCG:  Solving for T, Initial residual = 0.000660978, Final residual = 9.36672e-07, No Iterations 1
DICPCG:  Solving for T, Initial residual = 9.35117e-07, Final residual = 9.35117e-07, No Iterations 0
DICPCG:  Solving for T, Initial residual = 9.35117e-07, Final residual = 9.35117e-07, No Iterations 0
ExecutionTime = 4.35 s  ClockTime = 4 s

Time = 10.25

DICPCG:  Solving for T, Initial residual = 0.000657892, Final residual = 9.32065e-07, No Iterations 1
DICPCG:  Solving for T, Initial residual = 9.30526e-07, Final residual = 9.30526e-07, No Iterations 0
DICPCG:  Solving for T, Initial residual = 9.30526e-07, Final residual = 9.30526e-07, No Iterations 0
ExecutionTime = 4.37 s  ClockTime = 4 s

Time = 10.3

DICPCG:  Solving for T, Initial residual = 0.000654837, Final residual = 9.27405e-07, No Iterations 1
DICPCG:  Solving for T, Initial residual = 9.25883e-07, Final residual = 9.25883e-07, No Iterations 0
DICPCG:  Solving for T, Initial residual = 9.25883e-07, Final residual = 9.25883e-07, No Iterations 0
ExecutionTime = 4.39 s  ClockTime = 4 s

Time = 10.35

DICPCG:  Solving for T, Initial residual = 0.000651812, Final residual = 9.22705e-07, No Iterations 1
DICPCG:  Solving for T, Initial residual = 9.21198e-07, Final residual = 9.21198e-07, No Iterations 0
DICPCG:  Solving for T, Initial residual = 9.21198e-07, Final residual = 9.21198e-07, No Iterations 0
ExecutionTime = 4.4 s  ClockTime = 4 s

Time = 10.4

DICPCG:  Solving for T, Initial residual = 0.000648817, Final residual = 9.17974e-07, No Iterations 1
DICPCG:  Solving for T, Initial residual = 9.16483e-07, Final residual = 9.16483e-07, No Iterations 0
DICPCG:  Solving for T, Initial residual = 9.16483e-07, Final residual = 9.16483e-07, No Iterations 0
ExecutionTime = 4.42 s  ClockTime = 4 s

Time = 10.45

DICPCG:  Solving for T, Initial residual = 0.000645851, Final residual = 9.13221e-07, No Iterations 1
DICPCG:  Solving for T, Initial residual = 9.11746e-07, Final residual = 9.11746e-07, No Iterations 0
DICPCG:  Solving for T, Initial residual = 9.11746e-07, Final residual = 9.11746e-07, No Iterations 0
ExecutionTime = 4.43 s  ClockTime = 4 s

Time = 10.5

DICPCG:  Solving for T, Initial residual = 0.000642915, Final residual = 9.08452e-07, No Iterations 1
DICPCG:  Solving for T, Initial residual = 9.06992e-07, Final residual = 9.06992e-07, No Iterations 0
DICPCG:  Solving for T, Initial residual = 9.06992e-07, Final residual = 9.06992e-07, No Iterations 0
ExecutionTime = 4.45 s  ClockTime = 4 s

Time = 10.55

DICPCG:  Solving for T, Initial residual = 0.000640007, Final residual = 9.03672e-07, No Iterations 1
DICPCG:  Solving for T, Initial residual = 9.02227e-07, Final residual = 9.02227e-07, No Iterations 0
DICPCG:  Solving for T, Initial residual = 9.02227e-07, Final residual = 9.02227e-07, No Iterations 0
ExecutionTime = 4.47 s  ClockTime = 4 s

Time = 10.6

DICPCG:  Solving for T, Initial residual = 0.000637128, Final residual = 8.98886e-07, No Iterations 1
DICPCG:  Solving for T, Initial residual = 8.97457e-07, Final residual = 8.97457e-07, No Iterations 0
DICPCG:  Solving for T, Initial residual = 8.97457e-07, Final residual = 8.97457e-07, No Iterations 0
ExecutionTime = 4.47 s  ClockTime = 4 s

Time = 10.65

DICPCG:  Solving for T, Initial residual = 0.000634277, Final residual = 8.94101e-07, No Iterations 1
DICPCG:  Solving for T, Initial residual = 8.92687e-07, Final residual = 8.92687e-07, No Iterations 0
DICPCG:  Solving for T, Initial residual = 8.92687e-07, Final residual = 8.92687e-07, No Iterations 0
ExecutionTime = 4.5 s  ClockTime = 4 s

Time = 10.7

DICPCG:  Solving for T, Initial residual = 0.000631453, Final residual = 8.89319e-07, No Iterations 1
DICPCG:  Solving for T, Initial residual = 8.8792e-07, Final residual = 8.8792e-07, No Iterations 0
DICPCG:  Solving for T, Initial residual = 8.8792e-07, Final residual = 8.8792e-07, No Iterations 0
ExecutionTime = 4.52 s  ClockTime = 4 s

Time = 10.75

DICPCG:  Solving for T, Initial residual = 0.000628656, Final residual = 8.84546e-07, No Iterations 1
DICPCG:  Solving for T, Initial residual = 8.83162e-07, Final residual = 8.83162e-07, No Iterations 0
DICPCG:  Solving for T, Initial residual = 8.83162e-07, Final residual = 8.83162e-07, No Iterations 0
ExecutionTime = 4.53 s  ClockTime = 4 s

Time = 10.8

DICPCG:  Solving for T, Initial residual = 0.000625886, Final residual = 8.79814e-07, No Iterations 1
DICPCG:  Solving for T, Initial residual = 8.78444e-07, Final residual = 8.78444e-07, No Iterations 0
DICPCG:  Solving for T, Initial residual = 8.78444e-07, Final residual = 8.78444e-07, No Iterations 0
ExecutionTime = 4.55 s  ClockTime = 4 s

Time = 10.85

DICPCG:  Solving for T, Initial residual = 0.000623142, Final residual = 8.75459e-07, No Iterations 1
DICPCG:  Solving for T, Initial residual = 8.74103e-07, Final residual = 8.74103e-07, No Iterations 0
DICPCG:  Solving for T, Initial residual = 8.74103e-07, Final residual = 8.74103e-07, No Iterations 0
ExecutionTime = 4.57 s  ClockTime = 4 s

Time = 10.9

DICPCG:  Solving for T, Initial residual = 0.000620417, Final residual = 8.71102e-07, No Iterations 1
DICPCG:  Solving for T, Initial residual = 8.69759e-07, Final residual = 8.69759e-07, No Iterations 0
DICPCG:  Solving for T, Initial residual = 8.69759e-07, Final residual = 8.69759e-07, No Iterations 0
ExecutionTime = 4.58 s  ClockTime = 4 s

Time = 10.95

DICPCG:  Solving for T, Initial residual = 0.000617707, Final residual = 8.66738e-07, No Iterations 1
DICPCG:  Solving for T, Initial residual = 8.65395e-07, Final residual = 8.65395e-07, No Iterations 0
[...]
ExecutionTime = 82.63 s  ClockTime = 82 s

Time = 197.3

DICPCG:  Solving for T, Initial residual = 4.49688e-05, Final residual = 6.15227e-08, No Iterations 1
DICPCG:  Solving for T, Initial residual = 6.15186e-08, Final residual = 6.15186e-08, No Iterations 0
DICPCG:  Solving for T, Initial residual = 6.15186e-08, Final residual = 6.15186e-08, No Iterations 0
ExecutionTime = 82.65 s  ClockTime = 82 s

Time = 197.35

DICPCG:  Solving for T, Initial residual = 4.49593e-05, Final residual = 6.1516e-08, No Iterations 1
DICPCG:  Solving for T, Initial residual = 6.1512e-08, Final residual = 6.1512e-08, No Iterations 0
DICPCG:  Solving for T, Initial residual = 6.1512e-08, Final residual = 6.1512e-08, No Iterations 0
ExecutionTime = 82.67 s  ClockTime = 82 s

Time = 197.4

DICPCG:  Solving for T, Initial residual = 4.49499e-05, Final residual = 6.15094e-08, No Iterations 1
DICPCG:  Solving for T, Initial residual = 6.15053e-08, Final residual = 6.15053e-08, No Iterations 0
DICPCG:  Solving for T, Initial residual = 6.15053e-08, Final residual = 6.15053e-08, No Iterations 0
ExecutionTime = 82.68 s  ClockTime = 82 s

Time = 197.45

DICPCG:  Solving for T, Initial residual = 4.49404e-05, Final residual = 6.15027e-08, No Iterations 1
DICPCG:  Solving for T, Initial residual = 6.14987e-08, Final residual = 6.14987e-08, No Iterations 0
DICPCG:  Solving for T, Initial residual = 6.14987e-08, Final residual = 6.14987e-08, No Iterations 0
ExecutionTime = 82.7 s  ClockTime = 82 s

Time = 197.5

DICPCG:  Solving for T, Initial residual = 4.4931e-05, Final residual = 6.14961e-08, No Iterations 1
DICPCG:  Solving for T, Initial residual = 6.14921e-08, Final residual = 6.14921e-08, No Iterations 0
DICPCG:  Solving for T, Initial residual = 6.14921e-08, Final residual = 6.14921e-08, No Iterations 0
ExecutionTime = 82.72 s  ClockTime = 82 s

Time = 197.55

DICPCG:  Solving for T, Initial residual = 4.49215e-05, Final residual = 6.14895e-08, No Iterations 1
DICPCG:  Solving for T, Initial residual = 6.14854e-08, Final residual = 6.14854e-08, No Iterations 0
DICPCG:  Solving for T, Initial residual = 6.14854e-08, Final residual = 6.14854e-08, No Iterations 0
ExecutionTime = 82.73 s  ClockTime = 82 s

Time = 197.6

DICPCG:  Solving for T, Initial residual = 4.49121e-05, Final residual = 6.14828e-08, No Iterations 1
DICPCG:  Solving for T, Initial residual = 6.14788e-08, Final residual = 6.14788e-08, No Iterations 0
DICPCG:  Solving for T, Initial residual = 6.14788e-08, Final residual = 6.14788e-08, No Iterations 0
ExecutionTime = 82.75 s  ClockTime = 82 s

Time = 197.65

DICPCG:  Solving for T, Initial residual = 4.49026e-05, Final residual = 6.14762e-08, No Iterations 1
DICPCG:  Solving for T, Initial residual = 6.14722e-08, Final residual = 6.14722e-08, No Iterations 0
DICPCG:  Solving for T, Initial residual = 6.14722e-08, Final residual = 6.14722e-08, No Iterations 0
ExecutionTime = 82.76 s  ClockTime = 82 s

Time = 197.7

DICPCG:  Solving for T, Initial residual = 4.48932e-05, Final residual = 6.14696e-08, No Iterations 1
DICPCG:  Solving for T, Initial residual = 6.14656e-08, Final residual = 6.14656e-08, No Iterations 0
DICPCG:  Solving for T, Initial residual = 6.14656e-08, Final residual = 6.14656e-08, No Iterations 0
ExecutionTime = 82.78 s  ClockTime = 82 s

Time = 197.75

DICPCG:  Solving for T, Initial residual = 4.48838e-05, Final residual = 6.1463e-08, No Iterations 1
DICPCG:  Solving for T, Initial residual = 6.1459e-08, Final residual = 6.1459e-08, No Iterations 0
DICPCG:  Solving for T, Initial residual = 6.1459e-08, Final residual = 6.1459e-08, No Iterations 0
ExecutionTime = 82.8 s  ClockTime = 82 s

Time = 197.8

DICPCG:  Solving for T, Initial residual = 4.48743e-05, Final residual = 6.14564e-08, No Iterations 1
DICPCG:  Solving for T, Initial residual = 6.14524e-08, Final residual = 6.14524e-08, No Iterations 0
DICPCG:  Solving for T, Initial residual = 6.14524e-08, Final residual = 6.14524e-08, No Iterations 0
ExecutionTime = 82.82 s  ClockTime = 82 s

Time = 197.85

DICPCG:  Solving for T, Initial residual = 4.48649e-05, Final residual = 6.14499e-08, No Iterations 1
DICPCG:  Solving for T, Initial residual = 6.14459e-08, Final residual = 6.14459e-08, No Iterations 0
DICPCG:  Solving for T, Initial residual = 6.14459e-08, Final residual = 6.14459e-08, No Iterations 0
ExecutionTime = 82.84 s  ClockTime = 82 s

Time = 197.9

DICPCG:  Solving for T, Initial residual = 4.48555e-05, Final residual = 6.14433e-08, No Iterations 1
DICPCG:  Solving for T, Initial residual = 6.14393e-08, Final residual = 6.14393e-08, No Iterations 0
DICPCG:  Solving for T, Initial residual = 6.14393e-08, Final residual = 6.14393e-08, No Iterations 0
ExecutionTime = 82.85 s  ClockTime = 83 s

Time = 197.95

DICPCG:  Solving for T, Initial residual = 4.48461e-05, Final residual = 6.14367e-08, No Iterations 1
DICPCG:  Solving for T, Initial residual = 6.14327e-08, Final residual = 6.14327e-08, No Iterations 0
DICPCG:  Solving for T, Initial residual = 6.14327e-08, Final residual = 6.14327e-08, No Iterations 0
ExecutionTime = 82.87 s  ClockTime = 83 s

Time = 198

DICPCG:  Solving for T, Initial residual = 4.48367e-05, Final residual = 6.14302e-08, No Iterations 1
DICPCG:  Solving for T, Initial residual = 6.14262e-08, Final residual = 6.14262e-08, No Iterations 0
DICPCG:  Solving for T, Initial residual = 6.14262e-08, Final residual = 6.14262e-08, No Iterations 0
ExecutionTime = 82.94 s  ClockTime = 83 s

Time = 198.05

DICPCG:  Solving for T, Initial residual = 4.48273e-05, Final residual = 6.14236e-08, No Iterations 1
DICPCG:  Solving for T, Initial residual = 6.14196e-08, Final residual = 6.14196e-08, No Iterations 0
DICPCG:  Solving for T, Initial residual = 6.14196e-08, Final residual = 6.14196e-08, No Iterations 0
ExecutionTime = 82.99 s  ClockTime = 83 s

Time = 198.1

DICPCG:  Solving for T, Initial residual = 4.48179e-05, Final residual = 6.14171e-08, No Iterations 1
DICPCG:  Solving for T, Initial residual = 6.14131e-08, Final residual = 6.14131e-08, No Iterations 0
DICPCG:  Solving for T, Initial residual = 6.14131e-08, Final residual = 6.14131e-08, No Iterations 0
ExecutionTime = 83.01 s  ClockTime = 83 s

Time = 198.15

DICPCG:  Solving for T, Initial residual = 4.48085e-05, Final residual = 6.14106e-08, No Iterations 1
DICPCG:  Solving for T, Initial residual = 6.14066e-08, Final residual = 6.14066e-08, No Iterations 0
DICPCG:  Solving for T, Initial residual = 6.14066e-08, Final residual = 6.14066e-08, No Iterations 0
ExecutionTime = 83.03 s  ClockTime = 83 s

Time = 198.2

DICPCG:  Solving for T, Initial residual = 4.47991e-05, Final residual = 6.1404e-08, No Iterations 1
DICPCG:  Solving for T, Initial residual = 6.14e-08, Final residual = 6.14e-08, No Iterations 0
DICPCG:  Solving for T, Initial residual = 6.14e-08, Final residual = 6.14e-08, No Iterations 0
ExecutionTime = 83.04 s  ClockTime = 83 s

Time = 198.25

DICPCG:  Solving for T, Initial residual = 4.47898e-05, Final residual = 6.13975e-08, No Iterations 1
DICPCG:  Solving for T, Initial residual = 6.13935e-08, Final residual = 6.13935e-08, No Iterations 0
DICPCG:  Solving for T, Initial residual = 6.13935e-08, Final residual = 6.13935e-08, No Iterations 0
ExecutionTime = 83.06 s  ClockTime = 83 s

Time = 198.3

DICPCG:  Solving for T, Initial residual = 4.47804e-05, Final residual = 6.1391e-08, No Iterations 1
DICPCG:  Solving for T, Initial residual = 6.1387e-08, Final residual = 6.1387e-08, No Iterations 0
DICPCG:  Solving for T, Initial residual = 6.1387e-08, Final residual = 6.1387e-08, No Iterations 0
ExecutionTime = 83.08 s  ClockTime = 83 s

Time = 198.35

DICPCG:  Solving for T, Initial residual = 4.4771e-05, Final residual = 6.13845e-08, No Iterations 1
DICPCG:  Solving for T, Initial residual = 6.13805e-08, Final residual = 6.13805e-08, No Iterations 0
DICPCG:  Solving for T, Initial residual = 6.13805e-08, Final residual = 6.13805e-08, No Iterations 0
ExecutionTime = 83.1 s  ClockTime = 83 s

Time = 198.4

DICPCG:  Solving for T, Initial residual = 4.47616e-05, Final residual = 6.1378e-08, No Iterations 1
DICPCG:  Solving for T, Initial residual = 6.1374e-08, Final residual = 6.1374e-08, No Iterations 0
DICPCG:  Solving for T, Initial residual = 6.1374e-08, Final residual = 6.1374e-08, No Iterations 0
ExecutionTime = 83.11 s  ClockTime = 83 s

Time = 198.45

DICPCG:  Solving for T, Initial residual = 4.47523e-05, Final residual = 6.13716e-08, No Iterations 1
DICPCG:  Solving for T, Initial residual = 6.13676e-08, Final residual = 6.13676e-08, No Iterations 0
DICPCG:  Solving for T, Initial residual = 6.13676e-08, Final residual = 6.13676e-08, No Iterations 0
ExecutionTime = 83.13 s  ClockTime = 83 s

Time = 198.5

DICPCG:  Solving for T, Initial residual = 4.47429e-05, Final residual = 6.13651e-08, No Iterations 1
DICPCG:  Solving for T, Initial residual = 6.13611e-08, Final residual = 6.13611e-08, No Iterations 0
DICPCG:  Solving for T, Initial residual = 6.13611e-08, Final residual = 6.13611e-08, No Iterations 0
ExecutionTime = 83.15 s  ClockTime = 83 s

Time = 198.55

DICPCG:  Solving for T, Initial residual = 4.47336e-05, Final residual = 6.13586e-08, No Iterations 1
DICPCG:  Solving for T, Initial residual = 6.13546e-08, Final residual = 6.13546e-08, No Iterations 0
DICPCG:  Solving for T, Initial residual = 6.13546e-08, Final residual = 6.13546e-08, No Iterations 0
ExecutionTime = 83.16 s  ClockTime = 83 s

Time = 198.6

DICPCG:  Solving for T, Initial residual = 4.47242e-05, Final residual = 6.13522e-08, No Iterations 1
DICPCG:  Solving for T, Initial residual = 6.13482e-08, Final residual = 6.13482e-08, No Iterations 0
DICPCG:  Solving for T, Initial residual = 6.13482e-08, Final residual = 6.13482e-08, No Iterations 0
ExecutionTime = 83.18 s  ClockTime = 83 s

Time = 198.65

DICPCG:  Solving for T, Initial residual = 4.47149e-05, Final residual = 6.13457e-08, No Iterations 1
DICPCG:  Solving for T, Initial residual = 6.13417e-08, Final residual = 6.13417e-08, No Iterations 0
DICPCG:  Solving for T, Initial residual = 6.13417e-08, Final residual = 6.13417e-08, No Iterations 0
ExecutionTime = 83.19 s  ClockTime = 83 s

Time = 198.7

DICPCG:  Solving for T, Initial residual = 4.47056e-05, Final residual = 6.13393e-08, No Iterations 1
DICPCG:  Solving for T, Initial residual = 6.13353e-08, Final residual = 6.13353e-08, No Iterations 0
DICPCG:  Solving for T, Initial residual = 6.13353e-08, Final residual = 6.13353e-08, No Iterations 0
ExecutionTime = 83.21 s  ClockTime = 83 s

Time = 198.75

DICPCG:  Solving for T, Initial residual = 4.46962e-05, Final residual = 6.13328e-08, No Iterations 1
DICPCG:  Solving for T, Initial residual = 6.13289e-08, Final residual = 6.13289e-08, No Iterations 0
DICPCG:  Solving for T, Initial residual = 6.13289e-08, Final residual = 6.13289e-08, No Iterations 0
ExecutionTime = 83.23 s  ClockTime = 83 s

Time = 198.8

DICPCG:  Solving for T, Initial residual = 4.46869e-05, Final residual = 6.13264e-08, No Iterations 1
DICPCG:  Solving for T, Initial residual = 6.13224e-08, Final residual = 6.13224e-08, No Iterations 0
DICPCG:  Solving for T, Initial residual = 6.13224e-08, Final residual = 6.13224e-08, No Iterations 0
ExecutionTime = 83.25 s  ClockTime = 83 s

Time = 198.85

DICPCG:  Solving for T, Initial residual = 4.46776e-05, Final residual = 6.132e-08, No Iterations 1
DICPCG:  Solving for T, Initial residual = 6.1316e-08, Final residual = 6.1316e-08, No Iterations 0
DICPCG:  Solving for T, Initial residual = 6.1316e-08, Final residual = 6.1316e-08, No Iterations 0
ExecutionTime = 83.26 s  ClockTime = 83 s

Time = 198.9

DICPCG:  Solving for T, Initial residual = 4.46683e-05, Final residual = 6.13136e-08, No Iterations 1
DICPCG:  Solving for T, Initial residual = 6.13096e-08, Final residual = 6.13096e-08, No Iterations 0
DICPCG:  Solving for T, Initial residual = 6.13096e-08, Final residual = 6.13096e-08, No Iterations 0
ExecutionTime = 83.28 s  ClockTime = 83 s

Time = 198.95

DICPCG:  Solving for T, Initial residual = 4.4659e-05, Final residual = 6.13072e-08, No Iterations 1
DICPCG:  Solving for T, Initial residual = 6.13032e-08, Final residual = 6.13032e-08, No Iterations 0
DICPCG:  Solving for T, Initial residual = 6.13032e-08, Final residual = 6.13032e-08, No Iterations 0
ExecutionTime = 83.3 s  ClockTime = 83 s

Time = 199

DICPCG:  Solving for T, Initial residual = 4.46497e-05, Final residual = 6.13008e-08, No Iterations 1
DICPCG:  Solving for T, Initial residual = 6.12968e-08, Final residual = 6.12968e-08, No Iterations 0
DICPCG:  Solving for T, Initial residual = 6.12968e-08, Final residual = 6.12968e-08, No Iterations 0
ExecutionTime = 83.38 s  ClockTime = 83 s

Time = 199.05

DICPCG:  Solving for T, Initial residual = 4.46404e-05, Final residual = 6.12944e-08, No Iterations 1
DICPCG:  Solving for T, Initial residual = 6.12904e-08, Final residual = 6.12904e-08, No Iterations 0
DICPCG:  Solving for T, Initial residual = 6.12904e-08, Final residual = 6.12904e-08, No Iterations 0
ExecutionTime = 83.42 s  ClockTime = 83 s

Time = 199.1

DICPCG:  Solving for T, Initial residual = 4.46311e-05, Final residual = 6.1288e-08, No Iterations 1
DICPCG:  Solving for T, Initial residual = 6.12841e-08, Final residual = 6.12841e-08, No Iterations 0
DICPCG:  Solving for T, Initial residual = 6.12841e-08, Final residual = 6.12841e-08, No Iterations 0
ExecutionTime = 83.43 s  ClockTime = 83 s

Time = 199.15

DICPCG:  Solving for T, Initial residual = 4.46218e-05, Final residual = 6.12817e-08, No Iterations 1
DICPCG:  Solving for T, Initial residual = 6.12777e-08, Final residual = 6.12777e-08, No Iterations 0
DICPCG:  Solving for T, Initial residual = 6.12777e-08, Final residual = 6.12777e-08, No Iterations 0
ExecutionTime = 83.45 s  ClockTime = 83 s

Time = 199.2

DICPCG:  Solving for T, Initial residual = 4.46125e-05, Final residual = 6.12753e-08, No Iterations 1
DICPCG:  Solving for T, Initial residual = 6.12713e-08, Final residual = 6.12713e-08, No Iterations 0
DICPCG:  Solving for T, Initial residual = 6.12713e-08, Final residual = 6.12713e-08, No Iterations 0
ExecutionTime = 83.47 s  ClockTime = 83 s

Time = 199.25

DICPCG:  Solving for T, Initial residual = 4.46032e-05, Final residual = 6.12689e-08, No Iterations 1
DICPCG:  Solving for T, Initial residual = 6.1265e-08, Final residual = 6.1265e-08, No Iterations 0
DICPCG:  Solving for T, Initial residual = 6.1265e-08, Final residual = 6.1265e-08, No Iterations 0
ExecutionTime = 83.49 s  ClockTime = 83 s

Time = 199.3

DICPCG:  Solving for T, Initial residual = 4.45939e-05, Final residual = 6.12626e-08, No Iterations 1
DICPCG:  Solving for T, Initial residual = 6.12586e-08, Final residual = 6.12586e-08, No Iterations 0
DICPCG:  Solving for T, Initial residual = 6.12586e-08, Final residual = 6.12586e-08, No Iterations 0
ExecutionTime = 83.5 s  ClockTime = 83 s

Time = 199.35

DICPCG:  Solving for T, Initial residual = 4.45846e-05, Final residual = 6.12563e-08, No Iterations 1
DICPCG:  Solving for T, Initial residual = 6.12523e-08, Final residual = 6.12523e-08, No Iterations 0
DICPCG:  Solving for T, Initial residual = 6.12523e-08, Final residual = 6.12523e-08, No Iterations 0
ExecutionTime = 83.52 s  ClockTime = 83 s

Time = 199.4

DICPCG:  Solving for T, Initial residual = 4.45754e-05, Final residual = 6.12499e-08, No Iterations 1
DICPCG:  Solving for T, Initial residual = 6.1246e-08, Final residual = 6.1246e-08, No Iterations 0
DICPCG:  Solving for T, Initial residual = 6.1246e-08, Final residual = 6.1246e-08, No Iterations 0
ExecutionTime = 83.53 s  ClockTime = 83 s

Time = 199.45

DICPCG:  Solving for T, Initial residual = 4.45661e-05, Final residual = 6.12436e-08, No Iterations 1
DICPCG:  Solving for T, Initial residual = 6.12396e-08, Final residual = 6.12396e-08, No Iterations 0
DICPCG:  Solving for T, Initial residual = 6.12396e-08, Final residual = 6.12396e-08, No Iterations 0
ExecutionTime = 83.55 s  ClockTime = 83 s

Time = 199.5

DICPCG:  Solving for T, Initial residual = 4.45569e-05, Final residual = 6.12373e-08, No Iterations 1
DICPCG:  Solving for T, Initial residual = 6.12333e-08, Final residual = 6.12333e-08, No Iterations 0
DICPCG:  Solving for T, Initial residual = 6.12333e-08, Final residual = 6.12333e-08, No Iterations 0
ExecutionTime = 83.57 s  ClockTime = 83 s

Time = 199.55

DICPCG:  Solving for T, Initial residual = 4.45476e-05, Final residual = 6.1231e-08, No Iterations 1
DICPCG:  Solving for T, Initial residual = 6.1227e-08, Final residual = 6.1227e-08, No Iterations 0
DICPCG:  Solving for T, Initial residual = 6.1227e-08, Final residual = 6.1227e-08, No Iterations 0
ExecutionTime = 83.58 s  ClockTime = 83 s

Time = 199.6

DICPCG:  Solving for T, Initial residual = 4.45384e-05, Final residual = 6.12247e-08, No Iterations 1
DICPCG:  Solving for T, Initial residual = 6.12207e-08, Final residual = 6.12207e-08, No Iterations 0
DICPCG:  Solving for T, Initial residual = 6.12207e-08, Final residual = 6.12207e-08, No Iterations 0
ExecutionTime = 83.6 s  ClockTime = 83 s

Time = 199.65

DICPCG:  Solving for T, Initial residual = 4.45291e-05, Final residual = 6.12184e-08, No Iterations 1
DICPCG:  Solving for T, Initial residual = 6.12144e-08, Final residual = 6.12144e-08, No Iterations 0
DICPCG:  Solving for T, Initial residual = 6.12144e-08, Final residual = 6.12144e-08, No Iterations 0
ExecutionTime = 83.62 s  ClockTime = 83 s

Time = 199.7

DICPCG:  Solving for T, Initial residual = 4.45199e-05, Final residual = 6.12121e-08, No Iterations 1
DICPCG:  Solving for T, Initial residual = 6.12082e-08, Final residual = 6.12082e-08, No Iterations 0
DICPCG:  Solving for T, Initial residual = 6.12082e-08, Final residual = 6.12082e-08, No Iterations 0
ExecutionTime = 83.63 s  ClockTime = 83 s

Time = 199.75

DICPCG:  Solving for T, Initial residual = 4.45106e-05, Final residual = 6.12058e-08, No Iterations 1
DICPCG:  Solving for T, Initial residual = 6.12019e-08, Final residual = 6.12019e-08, No Iterations 0
DICPCG:  Solving for T, Initial residual = 6.12019e-08, Final residual = 6.12019e-08, No Iterations 0
ExecutionTime = 83.65 s  ClockTime = 83 s

Time = 199.8

DICPCG:  Solving for T, Initial residual = 4.45014e-05, Final residual = 6.11996e-08, No Iterations 1
DICPCG:  Solving for T, Initial residual = 6.11956e-08, Final residual = 6.11956e-08, No Iterations 0
DICPCG:  Solving for T, Initial residual = 6.11956e-08, Final residual = 6.11956e-08, No Iterations 0
ExecutionTime = 83.66 s  ClockTime = 83 s

Time = 199.85

DICPCG:  Solving for T, Initial residual = 4.44922e-05, Final residual = 6.11933e-08, No Iterations 1
DICPCG:  Solving for T, Initial residual = 6.11894e-08, Final residual = 6.11894e-08, No Iterations 0
DICPCG:  Solving for T, Initial residual = 6.11894e-08, Final residual = 6.11894e-08, No Iterations 0
ExecutionTime = 83.68 s  ClockTime = 83 s

Time = 199.9

DICPCG:  Solving for T, Initial residual = 4.4483e-05, Final residual = 6.11871e-08, No Iterations 1
DICPCG:  Solving for T, Initial residual = 6.11831e-08, Final residual = 6.11831e-08, No Iterations 0
DICPCG:  Solving for T, Initial residual = 6.11831e-08, Final residual = 6.11831e-08, No Iterations 0
ExecutionTime = 83.7 s  ClockTime = 83 s

Time = 199.95

DICPCG:  Solving for T, Initial residual = 4.44738e-05, Final residual = 6.11808e-08, No Iterations 1
DICPCG:  Solving for T, Initial residual = 6.11769e-08, Final residual = 6.11769e-08, No Iterations 0
DICPCG:  Solving for T, Initial residual = 6.11769e-08, Final residual = 6.11769e-08, No Iterations 0
ExecutionTime = 83.71 s  ClockTime = 83 s

Time = 200

DICPCG:  Solving for T, Initial residual = 4.44645e-05, Final residual = 6.11746e-08, No Iterations 1
DICPCG:  Solving for T, Initial residual = 6.11706e-08, Final residual = 6.11706e-08, No Iterations 0
DICPCG:  Solving for T, Initial residual = 6.11706e-08, Final residual = 6.11706e-08, No Iterations 0
ExecutionTime = 83.8 s  ClockTime = 83 s

End

Finalising parallel run
