/*---------------------------------------------------------------------------*\
| =========                 |                                                 |
| \\      /  F ield         | OpenFOAM: The Open Source CFD Toolbox           |
|  \\    /   O peration     | Version:  2206                                  |
|   \\  /    A nd           | Website:  www.openfoam.com                      |
|    \\/     M anipulation  |                                                 |
\*---------------------------------------------------------------------------*/
Build  : _76d719d1-20220624 OPENFOAM=2206 version=v2206
Arch   : "LSB;label=64;scalar=64"
Exec   : reconstructPar
Date   : Jan 20 2023
Time   : 11:50:54
Host   : DESKTOP-BTFG136
PID    : 13626
I/O    : uncollated
Case   : /home/noreff/works/OpenFOAM-2206-user/Projects/CHADvalidation/thermal/CHADValid_simple_new
nProcs : 1
trapFpe: Floating point exception trapping enabled (FOAM_SIGFPE).
fileModificationChecking : Monitoring run-time modified files using timeStampMaster (fileModificationSkew 5, maxFileModificationPolls 20)
allowSystemOperations : Allowing user-supplied system call operations

// * * * * * * * * * * * * * * * * * * * * * * * * * * * * * * * * * * * * * //
Create time



Reconstructing fields
region=region0

Time = 1

Reconstructing FV fields

    Reconstructing volScalarFields

        DT
        T
        gradTx
        gradTy
        gradTz

    Reconstructing volVectorFields

        flux

Reconstructing point fields

No point fields

No lagrangian fields

No FA fields

Time = 2

Reconstructing FV fields

    Reconstructing volScalarFields

        DT
        T
        gradTx
        gradTy
        gradTz

    Reconstructing volVectorFields

        flux

Reconstructing point fields

No point fields

No lagrangian fields

No FA fields

Time = 3

Reconstructing FV fields

    Reconstructing volScalarFields

        DT
        T
        gradTx
        gradTy
        gradTz

    Reconstructing volVectorFields

        flux

Reconstructing point fields

No point fields

No lagrangian fields

No FA fields

Time = 4

Reconstructing FV fields

    Reconstructing volScalarFields

        DT
        T
        gradTx
        gradTy
        gradTz

    Reconstructing volVectorFields

        flux

Reconstructing point fields

No point fields

No lagrangian fields

No FA fields

Time = 5

Reconstructing FV fields

    Reconstructing volScalarFields

        DT
        T
        gradTx
        gradTy
        gradTz

    Reconstructing volVectorFields

        flux

Reconstructing point fields

No point fields

No lagrangian fields

No FA fields

Time = 6

Reconstructing FV fields

    Reconstructing volScalarFields

        DT
        T
        gradTx
        gradTy
        gradTz

    Reconstructing volVectorFields

        flux

Reconstructing point fields

No point fields

No lagrangian fields

No FA fields

Time = 7

Reconstructing FV fields

    Reconstructing volScalarFields

        DT
        T
        gradTx
        gradTy
        gradTz

    Reconstructing volVectorFields

        flux

Reconstructing point fields

No point fields

No lagrangian fields

No FA fields

Time = 8

Reconstructing FV fields

    Reconstructing volScalarFields

        DT
        T
        gradTx
        gradTy
        gradTz

    Reconstructing volVectorFields

        flux

Reconstructing point fields

No point fields

No lagrangian fields

No FA fields

Time = 9

Reconstructing FV fields

    Reconstructing volScalarFields

        DT
        T
        gradTx
        gradTy
        gradTz

    Reconstructing volVectorFields

        flux

Reconstructing point fields

No point fields

No lagrangian fields

No FA fields

Time = 10

Reconstructing FV fields

    Reconstructing volScalarFields

        DT
        T
        gradTx
        gradTy
        gradTz

    Reconstructing volVectorFields

        flux

Reconstructing point fields

No point fields

No lagrangian fields

No FA fields

Time = 11

Reconstructing FV fields

    Reconstructing volScalarFields

        DT
        T
        gradTx
        gradTy
        gradTz

    Reconstructing volVectorFields

        flux

Reconstructing point fields

No point fields

No lagrangian fields

No FA fields

Time = 12

Reconstructing FV fields

    Reconstructing volScalarFields

        DT
        T
        gradTx
        gradTy
        gradTz

    Reconstructing volVectorFields

        flux

Reconstructing point fields

No point fields

No lagrangian fields

No FA fields

Time = 13

Reconstructing FV fields

    Reconstructing volScalarFields

        DT
        T
        gradTx
        gradTy
        gradTz

    Reconstructing volVectorFields

        flux

Reconstructing point fields

No point fields

No lagrangian fields

No FA fields

Time = 14

Reconstructing FV fields

    Reconstructing volScalarFields

        DT
        T
        gradTx
        gradTy
        gradTz

    Reconstructing volVectorFields

        flux

Reconstructing point fields

No point fields

No lagrangian fields

No FA fields

Time = 15

Reconstructing FV fields

    Reconstructing volScalarFields

        DT
        T
        gradTx
        gradTy
        gradTz

    Reconstructing volVectorFields

        flux

Reconstructing point fields

No point fields

No lagrangian fields

No FA fields

Time = 16

Reconstructing FV fields

    Reconstructing volScalarFields

        DT
        T
        gradTx
        gradTy
        gradTz

    Reconstructing volVectorFields

        flux

Reconstructing point fields

No point fields

No lagrangian fields

No FA fields

Time = 17

Reconstructing FV fields

    Reconstructing volScalarFields

        DT
        T
        gradTx
        gradTy
        gradTz

    Reconstructing volVectorFields

        flux

Reconstructing point fields

No point fields

No lagrangian fields

No FA fields

Time = 18

Reconstructing FV fields

    Reconstructing volScalarFields

        DT
        T
        gradTx
        gradTy
        gradTz

    Reconstructing volVectorFields

        flux

Reconstructing point fields

No point fields

No lagrangian fields

No FA fields

Time = 19

Reconstructing FV fields

    Reconstructing volScalarFields

        DT
        T
        gradTx
        gradTy
        gradTz

    Reconstructing volVectorFields

        flux

Reconstructing point fields

No point fields

No lagrangian fields

No FA fields

Time = 20

Reconstructing FV fields

    Reconstructing volScalarFields

        DT
        T
        gradTx
        gradTy
        gradTz

    Reconstructing volVectorFields

        flux

Reconstructing point fields

No point fields

No lagrangian fields

No FA fields

Time = 21

Reconstructing FV fields

    Reconstructing volScalarFields

        DT
        T
        gradTx
        gradTy
        gradTz

    Reconstructing volVectorFields

        flux

Reconstructing point fields

No point fields

No lagrangian fields

No FA fields

Time = 22

Reconstructing FV fields

    Reconstructing volScalarFields

        DT
        T
        gradTx
        gradTy
        gradTz

    Reconstructing volVectorFields

        flux

Reconstructing point fields

No point fields

No lagrangian fields

No FA fields

Time = 23

Reconstructing FV fields

    Reconstructing volScalarFields

        DT
        T
        gradTx
        gradTy
        gradTz

    Reconstructing volVectorFields

        flux

Reconstructing point fields

No point fields

No lagrangian fields

No FA fields

Time = 24

Reconstructing FV fields

    Reconstructing volScalarFields

        DT
        T
        gradTx
        gradTy
        gradTz

    Reconstructing volVectorFields

        flux

Reconstructing point fields

No point fields

No lagrangian fields

No FA fields

Time = 25

Reconstructing FV fields

    Reconstructing volScalarFields

        DT
        T
        gradTx
        gradTy
        gradTz

    Reconstructing volVectorFields

        flux

Reconstructing point fields

No point fields

No lagrangian fields

No FA fields

Time = 26

Reconstructing FV fields

    Reconstructing volScalarFields

        DT
        T
        gradTx
        gradTy
        gradTz

    Reconstructing volVectorFields

        flux

Reconstructing point fields

No point fields

No lagrangian fields

No FA fields

Time = 27

Reconstructing FV fields

    Reconstructing volScalarFields

        DT
        T
        gradTx
        gradTy
        gradTz

    Reconstructing volVectorFields

        flux

Reconstructing point fields

No point fields

No lagrangian fields

No FA fields

Time = 28

Reconstructing FV fields

    Reconstructing volScalarFields

        DT
        T
        gradTx
        gradTy
        gradTz

    Reconstructing volVectorFields

        flux

Reconstructing point fields

No point fields

No lagrangian fields

No FA fields

Time = 29

Reconstructing FV fields

    Reconstructing volScalarFields

        DT
        T
        gradTx
        gradTy
        gradTz

    Reconstructing volVectorFields

        flux

Reconstructing point fields

No point fields

No lagrangian fields

No FA fields

Time = 30

Reconstructing FV fields

    Reconstructing volScalarFields

        DT
        T
        gradTx
        gradTy
        gradTz

    Reconstructing volVectorFields

        flux

Reconstructing point fields

No point fields

No lagrangian fields

No FA fields

Time = 31

Reconstructing FV fields

    Reconstructing volScalarFields

        DT
        T
        gradTx
        gradTy
        gradTz

    Reconstructing volVectorFields

        flux

Reconstructing point fields

No point fields

No lagrangian fields

No FA fields

Time = 32

Reconstructing FV fields

    Reconstructing volScalarFields

        DT
        T
        gradTx
        gradTy
        gradTz

    Reconstructing volVectorFields

        flux

Reconstructing point fields

No point fields

No lagrangian fields

No FA fields

Time = 33

Reconstructing FV fields

    Reconstructing volScalarFields

        DT
        T
        gradTx
        gradTy
        gradTz

    Reconstructing volVectorFields

        flux

Reconstructing point fields

No point fields

No lagrangian fields

No FA fields

Time = 34

Reconstructing FV fields

    Reconstructing volScalarFields

        DT
        T
        gradTx
        gradTy
        gradTz

    Reconstructing volVectorFields

        flux

Reconstructing point fields

No point fields

No lagrangian fields

No FA fields

Time = 35

Reconstructing FV fields

    Reconstructing volScalarFields

        DT
        T
        gradTx
        gradTy
        gradTz

    Reconstructing volVectorFields

        flux

Reconstructing point fields

No point fields

No lagrangian fields

No FA fields

Time = 36

Reconstructing FV fields

    Reconstructing volScalarFields

        DT
        T
        gradTx
        gradTy
        gradTz

    Reconstructing volVectorFields

        flux

Reconstructing point fields

No point fields

No lagrangian fields

No FA fields

Time = 37

Reconstructing FV fields

    Reconstructing volScalarFields

        DT
        T
        gradTx
        gradTy
        gradTz

    Reconstructing volVectorFields

        flux

Reconstructing point fields

No point fields

No lagrangian fields

No FA fields

Time = 38

Reconstructing FV fields

    Reconstructing volScalarFields

        DT
        T
        gradTx
        gradTy
        gradTz

    Reconstructing volVectorFields

        flux

Reconstructing point fields

No point fields

No lagrangian fields

No FA fields

Time = 39

Reconstructing FV fields

    Reconstructing volScalarFields

        DT
        T
        gradTx
        gradTy
        gradTz

    Reconstructing volVectorFields

        flux

Reconstructing point fields

No point fields

No lagrangian fields

No FA fields

Time = 40

Reconstructing FV fields

    Reconstructing volScalarFields

        DT
        T
        gradTx
        gradTy
        gradTz

    Reconstructing volVectorFields

        flux

Reconstructing point fields

No point fields

No lagrangian fields

No FA fields

Time = 41

Reconstructing FV fields

    Reconstructing volScalarFields

        DT
        T
        gradTx
        gradTy
        gradTz

    Reconstructing volVectorFields

        flux

Reconstructing point fields

No point fields

No lagrangian fields

No FA fields

Time = 42

Reconstructing FV fields

    Reconstructing volScalarFields

        DT
        T
        gradTx
        gradTy
        gradTz

    Reconstructing volVectorFields

        flux

Reconstructing point fields

No point fields

No lagrangian fields

No FA fields

Time = 43

Reconstructing FV fields

    Reconstructing volScalarFields

        DT
        T
        gradTx
        gradTy
        gradTz

    Reconstructing volVectorFields

        flux

Reconstructing point fields

No point fields

No lagrangian fields

No FA fields

Time = 44

Reconstructing FV fields

    Reconstructing volScalarFields

        DT
        T
        gradTx
        gradTy
        gradTz

    Reconstructing volVectorFields

        flux

Reconstructing point fields

No point fields

No lagrangian fields

No FA fields

Time = 45

Reconstructing FV fields

    Reconstructing volScalarFields

        DT
        T
        gradTx
        gradTy
        gradTz

    Reconstructing volVectorFields

        flux

Reconstructing point fields

No point fields

No lagrangian fields

No FA fields

Time = 46

Reconstructing FV fields

    Reconstructing volScalarFields

        DT
        T
        gradTx
        gradTy
        gradTz

    Reconstructing volVectorFields

        flux

Reconstructing point fields

No point fields

No lagrangian fields

No FA fields

Time = 47

Reconstructing FV fields

    Reconstructing volScalarFields

        DT
        T
        gradTx
        gradTy
        gradTz

    Reconstructing volVectorFields

        flux

Reconstructing point fields

No point fields

No lagrangian fields

No FA fields

Time = 48

Reconstructing FV fields

    Reconstructing volScalarFields

        DT
        T
        gradTx
        gradTy
        gradTz

    Reconstructing volVectorFields

        flux

Reconstructing point fields

No point fields

No lagrangian fields

No FA fields

Time = 49

Reconstructing FV fields

    Reconstructing volScalarFields

        DT
        T
        gradTx
        gradTy
        gradTz

    Reconstructing volVectorFields

        flux

Reconstructing point fields

No point fields

No lagrangian fields

No FA fields

Time = 50

Reconstructing FV fields

    Reconstructing volScalarFields

        DT
        T
        gradTx
        gradTy
        gradTz

    Reconstructing volVectorFields

        flux

Reconstructing point fields

No point fields

No lagrangian fields

No FA fields

Time = 51

Reconstructing FV fields

    Reconstructing volScalarFields

        DT
        T
        gradTx
        gradTy
        gradTz

    Reconstructing volVectorFields

        flux

Reconstructing point fields

No point fields

No lagrangian fields

No FA fields

Time = 52

Reconstructing FV fields

    Reconstructing volScalarFields

        DT
        T
        gradTx
        gradTy
        gradTz

    Reconstructing volVectorFields

        flux

Reconstructing point fields

No point fields

No lagrangian fields

No FA fields

Time = 53

Reconstructing FV fields

    Reconstructing volScalarFields

        DT
        T
        gradTx
        gradTy
        gradTz

    Reconstructing volVectorFields

        flux

Reconstructing point fields

No point fields

No lagrangian fields

No FA fields

Time = 54

Reconstructing FV fields

    Reconstructing volScalarFields

        DT
        T
        gradTx
        gradTy
        gradTz

    Reconstructing volVectorFields

        flux

Reconstructing point fields

No point fields

No lagrangian fields

No FA fields

Time = 55

Reconstructing FV fields

    Reconstructing volScalarFields

        DT
        T
        gradTx
        gradTy
        gradTz

    Reconstructing volVectorFields

        flux

Reconstructing point fields

No point fields

No lagrangian fields

No FA fields

Time = 56

Reconstructing FV fields

    Reconstructing volScalarFields

        DT
        T
        gradTx
        gradTy
        gradTz

    Reconstructing volVectorFields

        flux

Reconstructing point fields

No point fields

No lagrangian fields

No FA fields

Time = 57

Reconstructing FV fields

    Reconstructing volScalarFields

        DT
        T
        gradTx
        gradTy
        gradTz

    Reconstructing volVectorFields

        flux

Reconstructing point fields

No point fields

No lagrangian fields

No FA fields

Time = 58

Reconstructing FV fields

    Reconstructing volScalarFields

        DT
        T
        gradTx
        gradTy
        gradTz

    Reconstructing volVectorFields

        flux

Reconstructing point fields

No point fields

No lagrangian fields

No FA fields

Time = 59

Reconstructing FV fields

    Reconstructing volScalarFields

        DT
        T
        gradTx
        gradTy
        gradTz

    Reconstructing volVectorFields

        flux

Reconstructing point fields

No point fields

No lagrangian fields

No FA fields

Time = 60

Reconstructing FV fields

    Reconstructing volScalarFields

        DT
        T
        gradTx
        gradTy
        gradTz

    Reconstructing volVectorFields

        flux

Reconstructing point fields

No point fields

No lagrangian fields

No FA fields

Time = 61

Reconstructing FV fields

    Reconstructing volScalarFields

        DT
        T
        gradTx
        gradTy
        gradTz

    Reconstructing volVectorFields

        flux

Reconstructing point fields

No point fields

No lagrangian fields

No FA fields

Time = 62

Reconstructing FV fields

    Reconstructing volScalarFields

        DT
        T
        gradTx
        gradTy
        gradTz

    Reconstructing volVectorFields

        flux

Reconstructing point fields

No point fields

No lagrangian fields

No FA fields

Time = 63

Reconstructing FV fields

    Reconstructing volScalarFields

        DT
        T
        gradTx
        gradTy
        gradTz

    Reconstructing volVectorFields

        flux

Reconstructing point fields

No point fields

No lagrangian fields

No FA fields

Time = 64

Reconstructing FV fields

    Reconstructing volScalarFields

        DT
        T
        gradTx
        gradTy
        gradTz

    Reconstructing volVectorFields

        flux

Reconstructing point fields

No point fields

No lagrangian fields

No FA fields

Time = 65

Reconstructing FV fields

    Reconstructing volScalarFields

        DT
        T
        gradTx
        gradTy
        gradTz

    Reconstructing volVectorFields

        flux

Reconstructing point fields

No point fields

No lagrangian fields

No FA fields

Time = 66

Reconstructing FV fields

    Reconstructing volScalarFields

        DT
        T
        gradTx
        gradTy
        gradTz

    Reconstructing volVectorFields

        flux

Reconstructing point fields

No point fields

No lagrangian fields

No FA fields

Time = 67

Reconstructing FV fields

    Reconstructing volScalarFields

        DT
        T
        gradTx
        gradTy
        gradTz

    Reconstructing volVectorFields

        flux

Reconstructing point fields

No point fields

No lagrangian fields

No FA fields

Time = 68

Reconstructing FV fields

    Reconstructing volScalarFields

        DT
        T
        gradTx
        gradTy
        gradTz

    Reconstructing volVectorFields

        flux

Reconstructing point fields

No point fields

No lagrangian fields

No FA fields

Time = 69

Reconstructing FV fields

    Reconstructing volScalarFields

        DT
        T
        gradTx
        gradTy
        gradTz

    Reconstructing volVectorFields

        flux

Reconstructing point fields

No point fields

No lagrangian fields

No FA fields

Time = 70

Reconstructing FV fields

    Reconstructing volScalarFields

        DT
        T
        gradTx
        gradTy
        gradTz

    Reconstructing volVectorFields

        flux

Reconstructing point fields

No point fields

No lagrangian fields

No FA fields

Time = 71

Reconstructing FV fields

    Reconstructing volScalarFields

        DT
        T
        gradTx
        gradTy
        gradTz

    Reconstructing volVectorFields

        flux

Reconstructing point fields

No point fields

No lagrangian fields

No FA fields

Time = 72

Reconstructing FV fields

    Reconstructing volScalarFields

        DT
        T
        gradTx
        gradTy
        gradTz

    Reconstructing volVectorFields

        flux

Reconstructing point fields

No point fields

No lagrangian fields

No FA fields

Time = 73

Reconstructing FV fields

    Reconstructing volScalarFields

        DT
        T
        gradTx
        gradTy
        gradTz

    Reconstructing volVectorFields

        flux

Reconstructing point fields

No point fields

No lagrangian fields

No FA fields

Time = 74

Reconstructing FV fields

    Reconstructing volScalarFields

        DT
        T
        gradTx
        gradTy
        gradTz

    Reconstructing volVectorFields

        flux

Reconstructing point fields

No point fields

No lagrangian fields

No FA fields

Time = 75

Reconstructing FV fields

    Reconstructing volScalarFields

        DT
        T
        gradTx
        gradTy
        gradTz

    Reconstructing volVectorFields

        flux

Reconstructing point fields

No point fields

No lagrangian fields

No FA fields

Time = 76

Reconstructing FV fields

    Reconstructing volScalarFields

        DT
        T
        gradTx
        gradTy
        gradTz

    Reconstructing volVectorFields

        flux

Reconstructing point fields

No point fields

No lagrangian fields

No FA fields

Time = 77

Reconstructing FV fields

    Reconstructing volScalarFields

        DT
        T
        gradTx
        gradTy
        gradTz

    Reconstructing volVectorFields

        flux

Reconstructing point fields

No point fields

No lagrangian fields

No FA fields

Time = 78

Reconstructing FV fields

    Reconstructing volScalarFields

        DT
        T
        gradTx
        gradTy
        gradTz

    Reconstructing volVectorFields

        flux

Reconstructing point fields

No point fields

No lagrangian fields

No FA fields

Time = 79

Reconstructing FV fields

    Reconstructing volScalarFields

        DT
        T
        gradTx
        gradTy
        gradTz

    Reconstructing volVectorFields

        flux

Reconstructing point fields

No point fields

No lagrangian fields

No FA fields

Time = 80

Reconstructing FV fields

    Reconstructing volScalarFields

        DT
        T
        gradTx
        gradTy
        gradTz

    Reconstructing volVectorFields

        flux

Reconstructing point fields

No point fields

No lagrangian fields

No FA fields

Time = 81

Reconstructing FV fields

    Reconstructing volScalarFields

        DT
        T
        gradTx
        gradTy
        gradTz

    Reconstructing volVectorFields

        flux

Reconstructing point fields

No point fields

No lagrangian fields

No FA fields

Time = 82

Reconstructing FV fields

    Reconstructing volScalarFields

        DT
        T
        gradTx
        gradTy
        gradTz

    Reconstructing volVectorFields

        flux

Reconstructing point fields

No point fields

No lagrangian fields

No FA fields

Time = 83

Reconstructing FV fields

    Reconstructing volScalarFields

        DT
        T
        gradTx
        gradTy
        gradTz

    Reconstructing volVectorFields

        flux

Reconstructing point fields

No point fields

No lagrangian fields

No FA fields

Time = 84

Reconstructing FV fields

    Reconstructing volScalarFields

        DT
        T
        gradTx
        gradTy
        gradTz

    Reconstructing volVectorFields

        flux

Reconstructing point fields

No point fields

No lagrangian fields

No FA fields

Time = 85

Reconstructing FV fields

    Reconstructing volScalarFields

        DT
        T
        gradTx
        gradTy
        gradTz

    Reconstructing volVectorFields

        flux

Reconstructing point fields

No point fields

No lagrangian fields

No FA fields

Time = 86

Reconstructing FV fields

    Reconstructing volScalarFields

        DT
        T
        gradTx
        gradTy
        gradTz

    Reconstructing volVectorFields

        flux

Reconstructing point fields

No point fields

No lagrangian fields

No FA fields

Time = 87

Reconstructing FV fields

    Reconstructing volScalarFields

        DT
        T
        gradTx
        gradTy
        gradTz

    Reconstructing volVectorFields

        flux

Reconstructing point fields

No point fields

No lagrangian fields

No FA fields

Time = 88

Reconstructing FV fields

    Reconstructing volScalarFields

        DT
        T
        gradTx
        gradTy
        gradTz

    Reconstructing volVectorFields

        flux

Reconstructing point fields

No point fields

No lagrangian fields

No FA fields

Time = 89

Reconstructing FV fields

    Reconstructing volScalarFields

        DT
        T
        gradTx
        gradTy
        gradTz

    Reconstructing volVectorFields

        flux

Reconstructing point fields

No point fields

No lagrangian fields

No FA fields

Time = 90

Reconstructing FV fields

    Reconstructing volScalarFields

        DT
        T
        gradTx
        gradTy
        gradTz

    Reconstructing volVectorFields

        flux

Reconstructing point fields

No point fields

No lagrangian fields

No FA fields

Time = 91

Reconstructing FV fields

    Reconstructing volScalarFields

        DT
        T
        gradTx
        gradTy
        gradTz

    Reconstructing volVectorFields

        flux

Reconstructing point fields

No point fields

No lagrangian fields

No FA fields

Time = 92

Reconstructing FV fields

    Reconstructing volScalarFields

        DT
        T
        gradTx
        gradTy
        gradTz

    Reconstructing volVectorFields

        flux

Reconstructing point fields

No point fields

No lagrangian fields

No FA fields

Time = 93

Reconstructing FV fields

    Reconstructing volScalarFields

        DT
        T
        gradTx
        gradTy
        gradTz

    Reconstructing volVectorFields

        flux

Reconstructing point fields

No point fields

No lagrangian fields

No FA fields

Time = 94

Reconstructing FV fields

    Reconstructing volScalarFields

        DT
        T
        gradTx
        gradTy
        gradTz

    Reconstructing volVectorFields

        flux

Reconstructing point fields

No point fields

No lagrangian fields

No FA fields

Time = 95

Reconstructing FV fields

    Reconstructing volScalarFields

        DT
        T
        gradTx
        gradTy
        gradTz

    Reconstructing volVectorFields

        flux

Reconstructing point fields

No point fields

No lagrangian fields

No FA fields

Time = 96

Reconstructing FV fields

    Reconstructing volScalarFields

        DT
        T
        gradTx
        gradTy
        gradTz

    Reconstructing volVectorFields

        flux

Reconstructing point fields

No point fields

No lagrangian fields

No FA fields

Time = 97

Reconstructing FV fields

    Reconstructing volScalarFields

        DT
        T
        gradTx
        gradTy
        gradTz

    Reconstructing volVectorFields

        flux

Reconstructing point fields

No point fields

No lagrangian fields

No FA fields

Time = 98

Reconstructing FV fields

    Reconstructing volScalarFields

        DT
        T
        gradTx
        gradTy
        gradTz

    Reconstructing volVectorFields

        flux

Reconstructing point fields

No point fields

No lagrangian fields

No FA fields

Time = 99

Reconstructing FV fields

    Reconstructing volScalarFields

        DT
        T
        gradTx
        gradTy
        gradTz

    Reconstructing volVectorFields

        flux

Reconstructing point fields

No point fields

No lagrangian fields

No FA fields

Time = 100

Reconstructing FV fields

    Reconstructing volScalarFields

        DT
        T
        gradTx
        gradTy
        gradTz

    Reconstructing volVectorFields

        flux

Reconstructing point fields

No point fields

No lagrangian fields

No FA fields

Time = 101

Reconstructing FV fields

    Reconstructing volScalarFields

        DT
        T
        gradTx
        gradTy
        gradTz

    Reconstructing volVectorFields

        flux

Reconstructing point fields

No point fields

No lagrangian fields

No FA fields

Time = 102

Reconstructing FV fields

    Reconstructing volScalarFields

        DT
        T
        gradTx
        gradTy
        gradTz

    Reconstructing volVectorFields

        flux

Reconstructing point fields

No point fields

No lagrangian fields

No FA fields

Time = 103

Reconstructing FV fields

    Reconstructing volScalarFields

        DT
        T
        gradTx
        gradTy
        gradTz

    Reconstructing volVectorFields

        flux

Reconstructing point fields

No point fields

No lagrangian fields

No FA fields

Time = 104

Reconstructing FV fields

    Reconstructing volScalarFields

        DT
        T
        gradTx
        gradTy
        gradTz

    Reconstructing volVectorFields

        flux

Reconstructing point fields

No point fields

No lagrangian fields

No FA fields

Time = 105

Reconstructing FV fields

    Reconstructing volScalarFields

        DT
        T
        gradTx
        gradTy
        gradTz

    Reconstructing volVectorFields

        flux

Reconstructing point fields

No point fields

No lagrangian fields

No FA fields

Time = 106

Reconstructing FV fields

    Reconstructing volScalarFields

        DT
        T
        gradTx
        gradTy
        gradTz

    Reconstructing volVectorFields

        flux

Reconstructing point fields

No point fields

No lagrangian fields

No FA fields

Time = 107

Reconstructing FV fields

    Reconstructing volScalarFields

        DT
        T
        gradTx
        gradTy
        gradTz

    Reconstructing volVectorFields

        flux

Reconstructing point fields

No point fields

No lagrangian fields

No FA fields

Time = 108

Reconstructing FV fields

    Reconstructing volScalarFields

        DT
        T
        gradTx
        gradTy
        gradTz

    Reconstructing volVectorFields

        flux

Reconstructing point fields

No point fields

No lagrangian fields

No FA fields

Time = 109

Reconstructing FV fields

    Reconstructing volScalarFields

        DT
        T
        gradTx
        gradTy
        gradTz

    Reconstructing volVectorFields

        flux

Reconstructing point fields

No point fields

No lagrangian fields

No FA fields

Time = 110

Reconstructing FV fields

    Reconstructing volScalarFields

        DT
        T
        gradTx
        gradTy
        gradTz

    Reconstructing volVectorFields

        flux

Reconstructing point fields

No point fields

No lagrangian fields

No FA fields

Time = 111

Reconstructing FV fields

    Reconstructing volScalarFields

        DT
        T
        gradTx
        gradTy
        gradTz

    Reconstructing volVectorFields

        flux

Reconstructing point fields

No point fields

No lagrangian fields

No FA fields

Time = 112

Reconstructing FV fields

    Reconstructing volScalarFields

        DT
        T
        gradTx
        gradTy
        gradTz

    Reconstructing volVectorFields

        flux

Reconstructing point fields

No point fields

No lagrangian fields

No FA fields

Time = 113

Reconstructing FV fields

    Reconstructing volScalarFields

        DT
        T
        gradTx
        gradTy
        gradTz

    Reconstructing volVectorFields

        flux

Reconstructing point fields

No point fields

No lagrangian fields

No FA fields

Time = 114

Reconstructing FV fields

    Reconstructing volScalarFields

        DT
        T
        gradTx
        gradTy
        gradTz

    Reconstructing volVectorFields

        flux

Reconstructing point fields

No point fields

No lagrangian fields

No FA fields

Time = 115

Reconstructing FV fields

    Reconstructing volScalarFields

        DT
        T
        gradTx
        gradTy
        gradTz

    Reconstructing volVectorFields

        flux

Reconstructing point fields

No point fields

No lagrangian fields

No FA fields

Time = 116

Reconstructing FV fields

    Reconstructing volScalarFields

        DT
        T
        gradTx
        gradTy
        gradTz

    Reconstructing volVectorFields

        flux

Reconstructing point fields

No point fields

No lagrangian fields

No FA fields

Time = 117

Reconstructing FV fields

    Reconstructing volScalarFields

        DT
        T
        gradTx
        gradTy
        gradTz

    Reconstructing volVectorFields

        flux

Reconstructing point fields

No point fields

No lagrangian fields

No FA fields

Time = 118

Reconstructing FV fields

    Reconstructing volScalarFields

        DT
        T
        gradTx
        gradTy
        gradTz

    Reconstructing volVectorFields

        flux

Reconstructing point fields

No point fields

No lagrangian fields

No FA fields

Time = 119

Reconstructing FV fields

    Reconstructing volScalarFields

        DT
        T
        gradTx
        gradTy
        gradTz

    Reconstructing volVectorFields

        flux

Reconstructing point fields

No point fields

No lagrangian fields

No FA fields

Time = 120

Reconstructing FV fields

    Reconstructing volScalarFields

        DT
        T
        gradTx
        gradTy
        gradTz

    Reconstructing volVectorFields

        flux

Reconstructing point fields

No point fields

No lagrangian fields

No FA fields

Time = 121

Reconstructing FV fields

    Reconstructing volScalarFields

        DT
        T
        gradTx
        gradTy
        gradTz

    Reconstructing volVectorFields

        flux

Reconstructing point fields

No point fields

No lagrangian fields

No FA fields

Time = 122

Reconstructing FV fields

    Reconstructing volScalarFields

        DT
        T
        gradTx
        gradTy
        gradTz

    Reconstructing volVectorFields

        flux

Reconstructing point fields

No point fields

No lagrangian fields

No FA fields

Time = 123

Reconstructing FV fields

    Reconstructing volScalarFields

        DT
        T
        gradTx
        gradTy
        gradTz

    Reconstructing volVectorFields

        flux

Reconstructing point fields

No point fields

No lagrangian fields

No FA fields

Time = 124

Reconstructing FV fields

    Reconstructing volScalarFields

        DT
        T
        gradTx
        gradTy
        gradTz

    Reconstructing volVectorFields

        flux

Reconstructing point fields

No point fields

No lagrangian fields

No FA fields

Time = 125

Reconstructing FV fields

    Reconstructing volScalarFields

        DT
        T
        gradTx
        gradTy
        gradTz

    Reconstructing volVectorFields

        flux

Reconstructing point fields

No point fields

No lagrangian fields

No FA fields

Time = 126

Reconstructing FV fields

    Reconstructing volScalarFields

        DT
        T
        gradTx
        gradTy
        gradTz

    Reconstructing volVectorFields

        flux

Reconstructing point fields

No point fields

No lagrangian fields

No FA fields

Time = 127

Reconstructing FV fields

    Reconstructing volScalarFields

        DT
        T
        gradTx
        gradTy
        gradTz

    Reconstructing volVectorFields

        flux

Reconstructing point fields

No point fields

No lagrangian fields

No FA fields

Time = 128

Reconstructing FV fields

    Reconstructing volScalarFields

        DT
        T
        gradTx
        gradTy
        gradTz

    Reconstructing volVectorFields

        flux

Reconstructing point fields

No point fields

No lagrangian fields

No FA fields

Time = 129

Reconstructing FV fields

    Reconstructing volScalarFields

        DT
        T
        gradTx
        gradTy
        gradTz

    Reconstructing volVectorFields

        flux

Reconstructing point fields

No point fields

No lagrangian fields

No FA fields

Time = 130

Reconstructing FV fields

    Reconstructing volScalarFields

        DT
        T
        gradTx
        gradTy
        gradTz

    Reconstructing volVectorFields

        flux

Reconstructing point fields

No point fields

No lagrangian fields

No FA fields

Time = 131

Reconstructing FV fields

    Reconstructing volScalarFields

        DT
        T
        gradTx
        gradTy
        gradTz

    Reconstructing volVectorFields

        flux

Reconstructing point fields

No point fields

No lagrangian fields

No FA fields

Time = 132

Reconstructing FV fields

    Reconstructing volScalarFields

        DT
        T
        gradTx
        gradTy
        gradTz

    Reconstructing volVectorFields

        flux

Reconstructing point fields

No point fields

No lagrangian fields

No FA fields

Time = 133

Reconstructing FV fields

    Reconstructing volScalarFields

        DT
        T
        gradTx
        gradTy
        gradTz

    Reconstructing volVectorFields

        flux

Reconstructing point fields

No point fields

No lagrangian fields

No FA fields

Time = 134

Reconstructing FV fields

    Reconstructing volScalarFields

        DT
        T
        gradTx
        gradTy
        gradTz

    Reconstructing volVectorFields

        flux

Reconstructing point fields

No point fields

No lagrangian fields

No FA fields

Time = 135

Reconstructing FV fields

    Reconstructing volScalarFields

        DT
        T
        gradTx
        gradTy
        gradTz

    Reconstructing volVectorFields

        flux

Reconstructing point fields

No point fields

No lagrangian fields

No FA fields

Time = 136

Reconstructing FV fields

    Reconstructing volScalarFields

        DT
        T
        gradTx
        gradTy
        gradTz

    Reconstructing volVectorFields

        flux

Reconstructing point fields

No point fields

No lagrangian fields

No FA fields

Time = 137

Reconstructing FV fields

    Reconstructing volScalarFields

        DT
        T
        gradTx
        gradTy
        gradTz

    Reconstructing volVectorFields

        flux

Reconstructing point fields

No point fields

No lagrangian fields

No FA fields

Time = 138

Reconstructing FV fields

    Reconstructing volScalarFields

        DT
        T
        gradTx
        gradTy
        gradTz

    Reconstructing volVectorFields

        flux

Reconstructing point fields

No point fields

No lagrangian fields

No FA fields

Time = 139

Reconstructing FV fields

    Reconstructing volScalarFields

        DT
        T
        gradTx
        gradTy
        gradTz

    Reconstructing volVectorFields

        flux

Reconstructing point fields

No point fields

No lagrangian fields

No FA fields

Time = 140

Reconstructing FV fields

    Reconstructing volScalarFields

        DT
        T
        gradTx
        gradTy
        gradTz

    Reconstructing volVectorFields

        flux

Reconstructing point fields

No point fields

No lagrangian fields

No FA fields

Time = 141

Reconstructing FV fields

    Reconstructing volScalarFields

        DT
        T
        gradTx
        gradTy
        gradTz

    Reconstructing volVectorFields

        flux

Reconstructing point fields

No point fields

No lagrangian fields

No FA fields

Time = 142

Reconstructing FV fields

    Reconstructing volScalarFields

        DT
        T
        gradTx
        gradTy
        gradTz

    Reconstructing volVectorFields

        flux

Reconstructing point fields

No point fields

No lagrangian fields

No FA fields

Time = 143

Reconstructing FV fields

    Reconstructing volScalarFields

        DT
        T
        gradTx
        gradTy
        gradTz

    Reconstructing volVectorFields

        flux

Reconstructing point fields

No point fields

No lagrangian fields

No FA fields

Time = 144

Reconstructing FV fields

    Reconstructing volScalarFields

        DT
        T
        gradTx
        gradTy
        gradTz

    Reconstructing volVectorFields

        flux

Reconstructing point fields

No point fields

No lagrangian fields

No FA fields

Time = 145

Reconstructing FV fields

    Reconstructing volScalarFields

        DT
        T
        gradTx
        gradTy
        gradTz

    Reconstructing volVectorFields

        flux

Reconstructing point fields

No point fields

No lagrangian fields

No FA fields

Time = 146

Reconstructing FV fields

    Reconstructing volScalarFields

        DT
        T
        gradTx
        gradTy
        gradTz

    Reconstructing volVectorFields

        flux

Reconstructing point fields

No point fields

No lagrangian fields

No FA fields

Time = 147

Reconstructing FV fields

    Reconstructing volScalarFields

        DT
        T
        gradTx
        gradTy
        gradTz

    Reconstructing volVectorFields

        flux

Reconstructing point fields

No point fields

No lagrangian fields

No FA fields

Time = 148

Reconstructing FV fields

    Reconstructing volScalarFields

        DT
        T
        gradTx
        gradTy
        gradTz

    Reconstructing volVectorFields

        flux

Reconstructing point fields

No point fields

No lagrangian fields

No FA fields

Time = 149

Reconstructing FV fields

    Reconstructing volScalarFields

        DT
        T
        gradTx
        gradTy
        gradTz

    Reconstructing volVectorFields

        flux

Reconstructing point fields

No point fields

No lagrangian fields

No FA fields

Time = 150

Reconstructing FV fields

    Reconstructing volScalarFields

        DT
        T
        gradTx
        gradTy
        gradTz

    Reconstructing volVectorFields

        flux

Reconstructing point fields

No point fields

No lagrangian fields

No FA fields

Time = 151

Reconstructing FV fields

    Reconstructing volScalarFields

        DT
        T
        gradTx
        gradTy
        gradTz

    Reconstructing volVectorFields

        flux

Reconstructing point fields

No point fields

No lagrangian fields

No FA fields

Time = 152

Reconstructing FV fields

    Reconstructing volScalarFields

        DT
        T
        gradTx
        gradTy
        gradTz

    Reconstructing volVectorFields

        flux

Reconstructing point fields

No point fields

No lagrangian fields

No FA fields

Time = 153

Reconstructing FV fields

    Reconstructing volScalarFields

        DT
        T
        gradTx
        gradTy
        gradTz

    Reconstructing volVectorFields

        flux

Reconstructing point fields

No point fields

No lagrangian fields

No FA fields

Time = 154

Reconstructing FV fields

    Reconstructing volScalarFields

        DT
        T
        gradTx
        gradTy
        gradTz

    Reconstructing volVectorFields

        flux

Reconstructing point fields

No point fields

No lagrangian fields

No FA fields

Time = 155

Reconstructing FV fields

    Reconstructing volScalarFields

        DT
        T
        gradTx
        gradTy
        gradTz

    Reconstructing volVectorFields

        flux

Reconstructing point fields

No point fields

No lagrangian fields

No FA fields

Time = 156

Reconstructing FV fields

    Reconstructing volScalarFields

        DT
        T
        gradTx
        gradTy
        gradTz

    Reconstructing volVectorFields

        flux

Reconstructing point fields

No point fields

No lagrangian fields

No FA fields

Time = 157

Reconstructing FV fields

    Reconstructing volScalarFields

        DT
        T
        gradTx
        gradTy
        gradTz

    Reconstructing volVectorFields

        flux

Reconstructing point fields

No point fields

No lagrangian fields

No FA fields

Time = 158

Reconstructing FV fields

    Reconstructing volScalarFields

        DT
        T
        gradTx
        gradTy
        gradTz

    Reconstructing volVectorFields

        flux

Reconstructing point fields

No point fields

No lagrangian fields

No FA fields

Time = 159

Reconstructing FV fields

    Reconstructing volScalarFields

        DT
        T
        gradTx
        gradTy
        gradTz

    Reconstructing volVectorFields

        flux

Reconstructing point fields

No point fields

No lagrangian fields

No FA fields

Time = 160

Reconstructing FV fields

    Reconstructing volScalarFields

        DT
        T
        gradTx
        gradTy
        gradTz

    Reconstructing volVectorFields

        flux

Reconstructing point fields

No point fields

No lagrangian fields

No FA fields

Time = 161

Reconstructing FV fields

    Reconstructing volScalarFields

        DT
        T
        gradTx
        gradTy
        gradTz

    Reconstructing volVectorFields

        flux

Reconstructing point fields

No point fields

No lagrangian fields

No FA fields

Time = 162

Reconstructing FV fields

    Reconstructing volScalarFields

        DT
        T
        gradTx
        gradTy
        gradTz

    Reconstructing volVectorFields

        flux

Reconstructing point fields

No point fields

No lagrangian fields

No FA fields

Time = 163

Reconstructing FV fields

    Reconstructing volScalarFields

        DT
        T
        gradTx
        gradTy
        gradTz

    Reconstructing volVectorFields

        flux

Reconstructing point fields

No point fields

No lagrangian fields

No FA fields

Time = 164

Reconstructing FV fields

    Reconstructing volScalarFields

        DT
        T
        gradTx
        gradTy
        gradTz

    Reconstructing volVectorFields

        flux

Reconstructing point fields

No point fields

No lagrangian fields

No FA fields

Time = 165

Reconstructing FV fields

    Reconstructing volScalarFields

        DT
        T
        gradTx
        gradTy
        gradTz

    Reconstructing volVectorFields

        flux

Reconstructing point fields

No point fields

No lagrangian fields

No FA fields

Time = 166

Reconstructing FV fields

    Reconstructing volScalarFields

        DT
        T
        gradTx
        gradTy
        gradTz

    Reconstructing volVectorFields

        flux

Reconstructing point fields

No point fields

No lagrangian fields

No FA fields

Time = 167

Reconstructing FV fields

    Reconstructing volScalarFields

        DT
        T
        gradTx
        gradTy
        gradTz

    Reconstructing volVectorFields

        flux

Reconstructing point fields

No point fields

No lagrangian fields

No FA fields

Time = 168

Reconstructing FV fields

    Reconstructing volScalarFields

        DT
        T
        gradTx
        gradTy
        gradTz

    Reconstructing volVectorFields

        flux

Reconstructing point fields

No point fields

No lagrangian fields

No FA fields

Time = 169

Reconstructing FV fields

    Reconstructing volScalarFields

        DT
        T
        gradTx
        gradTy
        gradTz

    Reconstructing volVectorFields

        flux

Reconstructing point fields

No point fields

No lagrangian fields

No FA fields

Time = 170

Reconstructing FV fields

    Reconstructing volScalarFields

        DT
        T
        gradTx
        gradTy
        gradTz

    Reconstructing volVectorFields

        flux

Reconstructing point fields

No point fields

No lagrangian fields

No FA fields

Time = 171

Reconstructing FV fields

    Reconstructing volScalarFields

        DT
        T
        gradTx
        gradTy
        gradTz

    Reconstructing volVectorFields

        flux

Reconstructing point fields

No point fields

No lagrangian fields

No FA fields

Time = 172

Reconstructing FV fields

    Reconstructing volScalarFields

        DT
        T
        gradTx
        gradTy
        gradTz

    Reconstructing volVectorFields

        flux

Reconstructing point fields

No point fields

No lagrangian fields

No FA fields

Time = 173

Reconstructing FV fields

    Reconstructing volScalarFields

        DT
        T
        gradTx
        gradTy
        gradTz

    Reconstructing volVectorFields

        flux

Reconstructing point fields

No point fields

No lagrangian fields

No FA fields

Time = 174

Reconstructing FV fields

    Reconstructing volScalarFields

        DT
        T
        gradTx
        gradTy
        gradTz

    Reconstructing volVectorFields

        flux

Reconstructing point fields

No point fields

No lagrangian fields

No FA fields

Time = 175

Reconstructing FV fields

    Reconstructing volScalarFields

        DT
        T
        gradTx
        gradTy
        gradTz

    Reconstructing volVectorFields

        flux

Reconstructing point fields

No point fields

No lagrangian fields

No FA fields

Time = 176

Reconstructing FV fields

    Reconstructing volScalarFields

        DT
        T
        gradTx
        gradTy
        gradTz

    Reconstructing volVectorFields

        flux

Reconstructing point fields

No point fields

No lagrangian fields

No FA fields

Time = 177

Reconstructing FV fields

    Reconstructing volScalarFields

        DT
        T
        gradTx
        gradTy
        gradTz

    Reconstructing volVectorFields

        flux

Reconstructing point fields

No point fields

No lagrangian fields

No FA fields

Time = 178

Reconstructing FV fields

    Reconstructing volScalarFields

        DT
        T
        gradTx
        gradTy
        gradTz

    Reconstructing volVectorFields

        flux

Reconstructing point fields

No point fields

No lagrangian fields

No FA fields

Time = 179

Reconstructing FV fields

    Reconstructing volScalarFields

        DT
        T
        gradTx
        gradTy
        gradTz

    Reconstructing volVectorFields

        flux

Reconstructing point fields

No point fields

No lagrangian fields

No FA fields

Time = 180

Reconstructing FV fields

    Reconstructing volScalarFields

        DT
        T
        gradTx
        gradTy
        gradTz

    Reconstructing volVectorFields

        flux

Reconstructing point fields

No point fields

No lagrangian fields

No FA fields

Time = 181

Reconstructing FV fields

    Reconstructing volScalarFields

        DT
        T
        gradTx
        gradTy
        gradTz

    Reconstructing volVectorFields

        flux

Reconstructing point fields

No point fields

No lagrangian fields

No FA fields

Time = 182

Reconstructing FV fields

    Reconstructing volScalarFields

        DT
        T
        gradTx
        gradTy
        gradTz

    Reconstructing volVectorFields

        flux

Reconstructing point fields

No point fields

No lagrangian fields

No FA fields

Time = 183

Reconstructing FV fields

    Reconstructing volScalarFields

        DT
        T
        gradTx
        gradTy
        gradTz

    Reconstructing volVectorFields

        flux

Reconstructing point fields

No point fields

No lagrangian fields

No FA fields

Time = 184

Reconstructing FV fields

    Reconstructing volScalarFields

        DT
        T
        gradTx
        gradTy
        gradTz

    Reconstructing volVectorFields

        flux

Reconstructing point fields

No point fields

No lagrangian fields

No FA fields

Time = 185

Reconstructing FV fields

    Reconstructing volScalarFields

        DT
        T
        gradTx
        gradTy
        gradTz

    Reconstructing volVectorFields

        flux

Reconstructing point fields

No point fields

No lagrangian fields

No FA fields

Time = 186

Reconstructing FV fields

    Reconstructing volScalarFields

        DT
        T
        gradTx
        gradTy
        gradTz

    Reconstructing volVectorFields

        flux

Reconstructing point fields

No point fields

No lagrangian fields

No FA fields

Time = 187

Reconstructing FV fields

    Reconstructing volScalarFields

        DT
        T
        gradTx
        gradTy
        gradTz

    Reconstructing volVectorFields

        flux

Reconstructing point fields

No point fields

No lagrangian fields

No FA fields

Time = 188

Reconstructing FV fields

    Reconstructing volScalarFields

        DT
        T
        gradTx
        gradTy
        gradTz

    Reconstructing volVectorFields

        flux

Reconstructing point fields

No point fields

No lagrangian fields

No FA fields

Time = 189

Reconstructing FV fields

    Reconstructing volScalarFields

        DT
        T
        gradTx
        gradTy
        gradTz

    Reconstructing volVectorFields

        flux

Reconstructing point fields

No point fields

No lagrangian fields

No FA fields

Time = 190

Reconstructing FV fields

    Reconstructing volScalarFields

        DT
        T
        gradTx
        gradTy
        gradTz

    Reconstructing volVectorFields

        flux

Reconstructing point fields

No point fields

No lagrangian fields

No FA fields

Time = 191

Reconstructing FV fields

    Reconstructing volScalarFields

        DT
        T
        gradTx
        gradTy
        gradTz

    Reconstructing volVectorFields

        flux

Reconstructing point fields

No point fields

No lagrangian fields

No FA fields

Time = 192

Reconstructing FV fields

    Reconstructing volScalarFields

        DT
        T
        gradTx
        gradTy
        gradTz

    Reconstructing volVectorFields

        flux

Reconstructing point fields

No point fields

No lagrangian fields

No FA fields

Time = 193

Reconstructing FV fields

    Reconstructing volScalarFields

        DT
        T
        gradTx
        gradTy
        gradTz

    Reconstructing volVectorFields

        flux

Reconstructing point fields

No point fields

No lagrangian fields

No FA fields

Time = 194

Reconstructing FV fields

    Reconstructing volScalarFields

        DT
        T
        gradTx
        gradTy
        gradTz

    Reconstructing volVectorFields

        flux

Reconstructing point fields

No point fields

No lagrangian fields

No FA fields

Time = 195

Reconstructing FV fields

    Reconstructing volScalarFields

        DT
        T
        gradTx
        gradTy
        gradTz

    Reconstructing volVectorFields

        flux

Reconstructing point fields

No point fields

No lagrangian fields

No FA fields

Time = 196

Reconstructing FV fields

    Reconstructing volScalarFields

        DT
        T
        gradTx
        gradTy
        gradTz

    Reconstructing volVectorFields

        flux

Reconstructing point fields

No point fields

No lagrangian fields

No FA fields

Time = 197

Reconstructing FV fields

    Reconstructing volScalarFields

        DT
        T
        gradTx
        gradTy
        gradTz

    Reconstructing volVectorFields

        flux

Reconstructing point fields

No point fields

No lagrangian fields

No FA fields

Time = 198

Reconstructing FV fields

    Reconstructing volScalarFields

        DT
        T
        gradTx
        gradTy
        gradTz

    Reconstructing volVectorFields

        flux

Reconstructing point fields

No point fields

No lagrangian fields

No FA fields

Time = 199

Reconstructing FV fields

    Reconstructing volScalarFields

        DT
        T
        gradTx
        gradTy
        gradTz

    Reconstructing volVectorFields

        flux

Reconstructing point fields

No point fields

No lagrangian fields

No FA fields

Time = 200

Reconstructing FV fields

    Reconstructing volScalarFields

        DT
        T
        gradTx
        gradTy
        gradTz

    Reconstructing volVectorFields

        flux

Reconstructing point fields

No point fields

No lagrangian fields

No FA fields


End

