/*---------------------------------------------------------------------------*\
| =========                 |                                                 |
| \\      /  F ield         | OpenFOAM: The Open Source CFD Toolbox           |
|  \\    /   O peration     | Version:  2206                                  |
|   \\  /    A nd           | Website:  www.openfoam.com                      |
|    \\/     M anipulation  |                                                 |
\*---------------------------------------------------------------------------*/
Build  : _76d719d1-20220624 OPENFOAM=2206 version=v2206
Arch   : "LSB;label=64;scalar=64"
Exec   : foamToVTK
Date   : Jan 20 2023
Time   : 11:52:58
Host   : DESKTOP-BTFG136
PID    : 13635
I/O    : uncollated
Case   : /home/noreff/works/OpenFOAM-2206-user/Projects/CHADvalidation/thermal/CHADValid_simple_new
nProcs : 1
trapFpe: Floating point exception trapping enabled (FOAM_SIGFPE).
fileModificationChecking : Monitoring run-time modified files using timeStampMaster (fileModificationSkew 5, maxFileModificationPolls 20)
allowSystemOperations : Allowing user-supplied system call operations

// * * * * * * * * * * * * * * * * * * * * * * * * * * * * * * * * * * * * * //
Create time

Initial memory 182608 kB
Create mesh for time = 0

VTK mesh topology: 0.83 s, 329340 kB
Time: 0
    volScalar    : T
    Internal  : "VTK/CHADValid_simple_new_0/internal.vtu"
    Boundary  : "VTK/CHADValid_simple_new_0/boundary/top.vtp"
    Boundary  : "VTK/CHADValid_simple_new_0/boundary/bottom.vtp"
    Boundary  : "VTK/CHADValid_simple_new_0/boundary/left.vtp"
    Boundary  : "VTK/CHADValid_simple_new_0/boundary/right.vtp"
Wrote in 0.69 s, 490040 kB
Time: 1
    volScalar    : DT T gradTx gradTy gradTz
    volVector    : flux
    Internal  : "VTK/CHADValid_simple_new_20/internal.vtu"
    Boundary  : "VTK/CHADValid_simple_new_20/boundary/top.vtp"
    Boundary  : "VTK/CHADValid_simple_new_20/boundary/bottom.vtp"
    Boundary  : "VTK/CHADValid_simple_new_20/boundary/left.vtp"
    Boundary  : "VTK/CHADValid_simple_new_20/boundary/right.vtp"
Wrote in 0.83 s, 497168 kB
Time: 2
    volScalar    : DT T gradTx gradTy gradTz
    volVector    : flux
    Internal  : "VTK/CHADValid_simple_new_40/internal.vtu"
    Boundary  : "VTK/CHADValid_simple_new_40/boundary/top.vtp"
    Boundary  : "VTK/CHADValid_simple_new_40/boundary/bottom.vtp"
    Boundary  : "VTK/CHADValid_simple_new_40/boundary/left.vtp"
    Boundary  : "VTK/CHADValid_simple_new_40/boundary/right.vtp"
Wrote in 0.78 s, 530476 kB
Time: 3
    volScalar    : DT T gradTx gradTy gradTz
    volVector    : flux
    Internal  : "VTK/CHADValid_simple_new_60/internal.vtu"
    Boundary  : "VTK/CHADValid_simple_new_60/boundary/top.vtp"
    Boundary  : "VTK/CHADValid_simple_new_60/boundary/bottom.vtp"
    Boundary  : "VTK/CHADValid_simple_new_60/boundary/left.vtp"
    Boundary  : "VTK/CHADValid_simple_new_60/boundary/right.vtp"
Wrote in 0.82 s, 530480 kB
Time: 4
    volScalar    : DT T gradTx gradTy gradTz
    volVector    : flux
    Internal  : "VTK/CHADValid_simple_new_80/internal.vtu"
    Boundary  : "VTK/CHADValid_simple_new_80/boundary/top.vtp"
    Boundary  : "VTK/CHADValid_simple_new_80/boundary/bottom.vtp"
    Boundary  : "VTK/CHADValid_simple_new_80/boundary/left.vtp"
    Boundary  : "VTK/CHADValid_simple_new_80/boundary/right.vtp"
Wrote in 0.79 s, 530480 kB
Time: 5
    volScalar    : DT T gradTx gradTy gradTz
    volVector    : flux
    Internal  : "VTK/CHADValid_simple_new_100/internal.vtu"
    Boundary  : "VTK/CHADValid_simple_new_100/boundary/top.vtp"
    Boundary  : "VTK/CHADValid_simple_new_100/boundary/bottom.vtp"
    Boundary  : "VTK/CHADValid_simple_new_100/boundary/left.vtp"
    Boundary  : "VTK/CHADValid_simple_new_100/boundary/right.vtp"
Wrote in 0.8 s, 497168 kB
Time: 6
    volScalar    : DT T gradTx gradTy gradTz
    volVector    : flux
    Internal  : "VTK/CHADValid_simple_new_120/internal.vtu"
    Boundary  : "VTK/CHADValid_simple_new_120/boundary/top.vtp"
    Boundary  : "VTK/CHADValid_simple_new_120/boundary/bottom.vtp"
    Boundary  : "VTK/CHADValid_simple_new_120/boundary/left.vtp"
    Boundary  : "VTK/CHADValid_simple_new_120/boundary/right.vtp"
Wrote in 0.8 s, 530480 kB
Time: 7
    volScalar    : DT T gradTx gradTy gradTz
    volVector    : flux
    Internal  : "VTK/CHADValid_simple_new_140/internal.vtu"
    Boundary  : "VTK/CHADValid_simple_new_140/boundary/top.vtp"
    Boundary  : "VTK/CHADValid_simple_new_140/boundary/bottom.vtp"
    Boundary  : "VTK/CHADValid_simple_new_140/boundary/left.vtp"
    Boundary  : "VTK/CHADValid_simple_new_140/boundary/right.vtp"
Wrote in 0.81 s, 530480 kB
Time: 8
    volScalar    : DT T gradTx gradTy gradTz
    volVector    : flux
    Internal  : "VTK/CHADValid_simple_new_160/internal.vtu"
    Boundary  : "VTK/CHADValid_simple_new_160/boundary/top.vtp"
    Boundary  : "VTK/CHADValid_simple_new_160/boundary/bottom.vtp"
    Boundary  : "VTK/CHADValid_simple_new_160/boundary/left.vtp"
    Boundary  : "VTK/CHADValid_simple_new_160/boundary/right.vtp"
Wrote in 0.8 s, 530480 kB
Time: 9
    volScalar    : DT T gradTx gradTy gradTz
    volVector    : flux
    Internal  : "VTK/CHADValid_simple_new_180/internal.vtu"
    Boundary  : "VTK/CHADValid_simple_new_180/boundary/top.vtp"
    Boundary  : "VTK/CHADValid_simple_new_180/boundary/bottom.vtp"
    Boundary  : "VTK/CHADValid_simple_new_180/boundary/left.vtp"
    Boundary  : "VTK/CHADValid_simple_new_180/boundary/right.vtp"
Wrote in 0.84 s, 530480 kB
Time: 10
    volScalar    : DT T gradTx gradTy gradTz
    volVector    : flux
    Internal  : "VTK/CHADValid_simple_new_200/internal.vtu"
    Boundary  : "VTK/CHADValid_simple_new_200/boundary/top.vtp"
    Boundary  : "VTK/CHADValid_simple_new_200/boundary/bottom.vtp"
    Boundary  : "VTK/CHADValid_simple_new_200/boundary/left.vtp"
    Boundary  : "VTK/CHADValid_simple_new_200/boundary/right.vtp"
Wrote in 0.87 s, 497168 kB
Time: 11
    volScalar    : DT T gradTx gradTy gradTz
    volVector    : flux
    Internal  : "VTK/CHADValid_simple_new_220/internal.vtu"
    Boundary  : "VTK/CHADValid_simple_new_220/boundary/top.vtp"
    Boundary  : "VTK/CHADValid_simple_new_220/boundary/bottom.vtp"
    Boundary  : "VTK/CHADValid_simple_new_220/boundary/left.vtp"
    Boundary  : "VTK/CHADValid_simple_new_220/boundary/right.vtp"
Wrote in 0.86 s, 530480 kB
Time: 12
    volScalar    : DT T gradTx gradTy gradTz
    volVector    : flux
    Internal  : "VTK/CHADValid_simple_new_240/internal.vtu"
    Boundary  : "VTK/CHADValid_simple_new_240/boundary/top.vtp"
    Boundary  : "VTK/CHADValid_simple_new_240/boundary/bottom.vtp"
    Boundary  : "VTK/CHADValid_simple_new_240/boundary/left.vtp"
    Boundary  : "VTK/CHADValid_simple_new_240/boundary/right.vtp"
Wrote in 0.87 s, 530480 kB
Time: 13
    volScalar    : DT T gradTx gradTy gradTz
    volVector    : flux
    Internal  : "VTK/CHADValid_simple_new_260/internal.vtu"
    Boundary  : "VTK/CHADValid_simple_new_260/boundary/top.vtp"
    Boundary  : "VTK/CHADValid_simple_new_260/boundary/bottom.vtp"
    Boundary  : "VTK/CHADValid_simple_new_260/boundary/left.vtp"
    Boundary  : "VTK/CHADValid_simple_new_260/boundary/right.vtp"
Wrote in 0.85 s, 530480 kB
Time: 14
    volScalar    : DT T gradTx gradTy gradTz
    volVector    : flux
    Internal  : "VTK/CHADValid_simple_new_280/internal.vtu"
    Boundary  : "VTK/CHADValid_simple_new_280/boundary/top.vtp"
    Boundary  : "VTK/CHADValid_simple_new_280/boundary/bottom.vtp"
    Boundary  : "VTK/CHADValid_simple_new_280/boundary/left.vtp"
    Boundary  : "VTK/CHADValid_simple_new_280/boundary/right.vtp"
Wrote in 0.88 s, 530480 kB
Time: 15
    volScalar    : DT T gradTx gradTy gradTz
    volVector    : flux
    Internal  : "VTK/CHADValid_simple_new_300/internal.vtu"
    Boundary  : "VTK/CHADValid_simple_new_300/boundary/top.vtp"
    Boundary  : "VTK/CHADValid_simple_new_300/boundary/bottom.vtp"
    Boundary  : "VTK/CHADValid_simple_new_300/boundary/left.vtp"
    Boundary  : "VTK/CHADValid_simple_new_300/boundary/right.vtp"
Wrote in 0.86 s, 497168 kB
Time: 16
    volScalar    : DT T gradTx gradTy gradTz
    volVector    : flux
    Internal  : "VTK/CHADValid_simple_new_320/internal.vtu"
    Boundary  : "VTK/CHADValid_simple_new_320/boundary/top.vtp"
    Boundary  : "VTK/CHADValid_simple_new_320/boundary/bottom.vtp"
    Boundary  : "VTK/CHADValid_simple_new_320/boundary/left.vtp"
    Boundary  : "VTK/CHADValid_simple_new_320/boundary/right.vtp"
Wrote in 0.86 s, 530480 kB
Time: 17
    volScalar    : DT T gradTx gradTy gradTz
    volVector    : flux
    Internal  : "VTK/CHADValid_simple_new_340/internal.vtu"
    Boundary  : "VTK/CHADValid_simple_new_340/boundary/top.vtp"
    Boundary  : "VTK/CHADValid_simple_new_340/boundary/bottom.vtp"
    Boundary  : "VTK/CHADValid_simple_new_340/boundary/left.vtp"
    Boundary  : "VTK/CHADValid_simple_new_340/boundary/right.vtp"
Wrote in 0.9 s, 497168 kB
Time: 18
    volScalar    : DT T gradTx gradTy gradTz
    volVector    : flux
    Internal  : "VTK/CHADValid_simple_new_360/internal.vtu"
    Boundary  : "VTK/CHADValid_simple_new_360/boundary/top.vtp"
    Boundary  : "VTK/CHADValid_simple_new_360/boundary/bottom.vtp"
    Boundary  : "VTK/CHADValid_simple_new_360/boundary/left.vtp"
    Boundary  : "VTK/CHADValid_simple_new_360/boundary/right.vtp"
Wrote in 0.87 s, 530484 kB
Time: 19
    volScalar    : DT T gradTx gradTy gradTz
    volVector    : flux
    Internal  : "VTK/CHADValid_simple_new_380/internal.vtu"
    Boundary  : "VTK/CHADValid_simple_new_380/boundary/top.vtp"
    Boundary  : "VTK/CHADValid_simple_new_380/boundary/bottom.vtp"
    Boundary  : "VTK/CHADValid_simple_new_380/boundary/left.vtp"
    Boundary  : "VTK/CHADValid_simple_new_380/boundary/right.vtp"
Wrote in 0.87 s, 497168 kB
Time: 20
    volScalar    : DT T gradTx gradTy gradTz
    volVector    : flux
    Internal  : "VTK/CHADValid_simple_new_400/internal.vtu"
    Boundary  : "VTK/CHADValid_simple_new_400/boundary/top.vtp"
    Boundary  : "VTK/CHADValid_simple_new_400/boundary/bottom.vtp"
    Boundary  : "VTK/CHADValid_simple_new_400/boundary/left.vtp"
    Boundary  : "VTK/CHADValid_simple_new_400/boundary/right.vtp"
Wrote in 0.88 s, 530484 kB
Time: 21
    volScalar    : DT T gradTx gradTy gradTz
    volVector    : flux
    Internal  : "VTK/CHADValid_simple_new_420/internal.vtu"
    Boundary  : "VTK/CHADValid_simple_new_420/boundary/top.vtp"
    Boundary  : "VTK/CHADValid_simple_new_420/boundary/bottom.vtp"
    Boundary  : "VTK/CHADValid_simple_new_420/boundary/left.vtp"
    Boundary  : "VTK/CHADValid_simple_new_420/boundary/right.vtp"
Wrote in 0.86 s, 530484 kB
Time: 22
    volScalar    : DT T gradTx gradTy gradTz
    volVector    : flux
    Internal  : "VTK/CHADValid_simple_new_440/internal.vtu"
    Boundary  : "VTK/CHADValid_simple_new_440/boundary/top.vtp"
    Boundary  : "VTK/CHADValid_simple_new_440/boundary/bottom.vtp"
    Boundary  : "VTK/CHADValid_simple_new_440/boundary/left.vtp"
    Boundary  : "VTK/CHADValid_simple_new_440/boundary/right.vtp"
Wrote in 0.89 s, 530484 kB
Time: 23
    volScalar    : DT T gradTx gradTy gradTz
    volVector    : flux
    Internal  : "VTK/CHADValid_simple_new_460/internal.vtu"
    Boundary  : "VTK/CHADValid_simple_new_460/boundary/top.vtp"
    Boundary  : "VTK/CHADValid_simple_new_460/boundary/bottom.vtp"
    Boundary  : "VTK/CHADValid_simple_new_460/boundary/left.vtp"
    Boundary  : "VTK/CHADValid_simple_new_460/boundary/right.vtp"
Wrote in 0.86 s, 497168 kB
Time: 24
    volScalar    : DT T gradTx gradTy gradTz
    volVector    : flux
    Internal  : "VTK/CHADValid_simple_new_480/internal.vtu"
    Boundary  : "VTK/CHADValid_simple_new_480/boundary/top.vtp"
    Boundary  : "VTK/CHADValid_simple_new_480/boundary/bottom.vtp"
    Boundary  : "VTK/CHADValid_simple_new_480/boundary/left.vtp"
    Boundary  : "VTK/CHADValid_simple_new_480/boundary/right.vtp"
Wrote in 0.88 s, 530484 kB
Time: 25
    volScalar    : DT T gradTx gradTy gradTz
    volVector    : flux
    Internal  : "VTK/CHADValid_simple_new_500/internal.vtu"
    Boundary  : "VTK/CHADValid_simple_new_500/boundary/top.vtp"
    Boundary  : "VTK/CHADValid_simple_new_500/boundary/bottom.vtp"
    Boundary  : "VTK/CHADValid_simple_new_500/boundary/left.vtp"
    Boundary  : "VTK/CHADValid_simple_new_500/boundary/right.vtp"
Wrote in 0.87 s, 497168 kB
Time: 26
    volScalar    : DT T gradTx gradTy gradTz
    volVector    : flux
    Internal  : "VTK/CHADValid_simple_new_520/internal.vtu"
    Boundary  : "VTK/CHADValid_simple_new_520/boundary/top.vtp"
    Boundary  : "VTK/CHADValid_simple_new_520/boundary/bottom.vtp"
    Boundary  : "VTK/CHADValid_simple_new_520/boundary/left.vtp"
    Boundary  : "VTK/CHADValid_simple_new_520/boundary/right.vtp"
Wrote in 0.86 s, 530484 kB
Time: 27
    volScalar    : DT T gradTx gradTy gradTz
    volVector    : flux
    Internal  : "VTK/CHADValid_simple_new_540/internal.vtu"
    Boundary  : "VTK/CHADValid_simple_new_540/boundary/top.vtp"
    Boundary  : "VTK/CHADValid_simple_new_540/boundary/bottom.vtp"
    Boundary  : "VTK/CHADValid_simple_new_540/boundary/left.vtp"
    Boundary  : "VTK/CHADValid_simple_new_540/boundary/right.vtp"
Wrote in 0.89 s, 530484 kB
Time: 28
    volScalar    : DT T gradTx gradTy gradTz
    volVector    : flux
    Internal  : "VTK/CHADValid_simple_new_560/internal.vtu"
    Boundary  : "VTK/CHADValid_simple_new_560/boundary/top.vtp"
    Boundary  : "VTK/CHADValid_simple_new_560/boundary/bottom.vtp"
    Boundary  : "VTK/CHADValid_simple_new_560/boundary/left.vtp"
    Boundary  : "VTK/CHADValid_simple_new_560/boundary/right.vtp"
Wrote in 0.87 s, 497168 kB
Time: 29
    volScalar    : DT T gradTx gradTy gradTz
    volVector    : flux
    Internal  : "VTK/CHADValid_simple_new_580/internal.vtu"
    Boundary  : "VTK/CHADValid_simple_new_580/boundary/top.vtp"
    Boundary  : "VTK/CHADValid_simple_new_580/boundary/bottom.vtp"
    Boundary  : "VTK/CHADValid_simple_new_580/boundary/left.vtp"
    Boundary  : "VTK/CHADValid_simple_new_580/boundary/right.vtp"
Wrote in 0.88 s, 497168 kB
Time: 30
    volScalar    : DT T gradTx gradTy gradTz
    volVector    : flux
    Internal  : "VTK/CHADValid_simple_new_600/internal.vtu"
    Boundary  : "VTK/CHADValid_simple_new_600/boundary/top.vtp"
    Boundary  : "VTK/CHADValid_simple_new_600/boundary/bottom.vtp"
    Boundary  : "VTK/CHADValid_simple_new_600/boundary/left.vtp"
    Boundary  : "VTK/CHADValid_simple_new_600/boundary/right.vtp"
Wrote in 0.86 s, 530484 kB
Time: 31
    volScalar    : DT T gradTx gradTy gradTz
    volVector    : flux
    Internal  : "VTK/CHADValid_simple_new_620/internal.vtu"
    Boundary  : "VTK/CHADValid_simple_new_620/boundary/top.vtp"
    Boundary  : "VTK/CHADValid_simple_new_620/boundary/bottom.vtp"
    Boundary  : "VTK/CHADValid_simple_new_620/boundary/left.vtp"
    Boundary  : "VTK/CHADValid_simple_new_620/boundary/right.vtp"
Wrote in 0.88 s, 497168 kB
Time: 32
    volScalar    : DT T gradTx gradTy gradTz
    volVector    : flux
    Internal  : "VTK/CHADValid_simple_new_640/internal.vtu"
    Boundary  : "VTK/CHADValid_simple_new_640/boundary/top.vtp"
    Boundary  : "VTK/CHADValid_simple_new_640/boundary/bottom.vtp"
    Boundary  : "VTK/CHADValid_simple_new_640/boundary/left.vtp"
    Boundary  : "VTK/CHADValid_simple_new_640/boundary/right.vtp"
Wrote in 0.89 s, 530484 kB
Time: 33
    volScalar    : DT T gradTx gradTy gradTz
    volVector    : flux
    Internal  : "VTK/CHADValid_simple_new_660/internal.vtu"
    Boundary  : "VTK/CHADValid_simple_new_660/boundary/top.vtp"
    Boundary  : "VTK/CHADValid_simple_new_660/boundary/bottom.vtp"
    Boundary  : "VTK/CHADValid_simple_new_660/boundary/left.vtp"
    Boundary  : "VTK/CHADValid_simple_new_660/boundary/right.vtp"
Wrote in 0.89 s, 497168 kB
Time: 34
    volScalar    : DT T gradTx gradTy gradTz
    volVector    : flux
    Internal  : "VTK/CHADValid_simple_new_680/internal.vtu"
    Boundary  : "VTK/CHADValid_simple_new_680/boundary/top.vtp"
    Boundary  : "VTK/CHADValid_simple_new_680/boundary/bottom.vtp"
    Boundary  : "VTK/CHADValid_simple_new_680/boundary/left.vtp"
    Boundary  : "VTK/CHADValid_simple_new_680/boundary/right.vtp"
Wrote in 0.87 s, 530488 kB
Time: 35
    volScalar    : DT T gradTx gradTy gradTz
    volVector    : flux
    Internal  : "VTK/CHADValid_simple_new_700/internal.vtu"
    Boundary  : "VTK/CHADValid_simple_new_700/boundary/top.vtp"
    Boundary  : "VTK/CHADValid_simple_new_700/boundary/bottom.vtp"
    Boundary  : "VTK/CHADValid_simple_new_700/boundary/left.vtp"
    Boundary  : "VTK/CHADValid_simple_new_700/boundary/right.vtp"
Wrote in 0.9 s, 497168 kB
Time: 36
    volScalar    : DT T gradTx gradTy gradTz
    volVector    : flux
    Internal  : "VTK/CHADValid_simple_new_720/internal.vtu"
    Boundary  : "VTK/CHADValid_simple_new_720/boundary/top.vtp"
    Boundary  : "VTK/CHADValid_simple_new_720/boundary/bottom.vtp"
    Boundary  : "VTK/CHADValid_simple_new_720/boundary/left.vtp"
    Boundary  : "VTK/CHADValid_simple_new_720/boundary/right.vtp"
Wrote in 0.87 s, 497168 kB
Time: 37
    volScalar    : DT T gradTx gradTy gradTz
    volVector    : flux
    Internal  : "VTK/CHADValid_simple_new_740/internal.vtu"
    Boundary  : "VTK/CHADValid_simple_new_740/boundary/top.vtp"
    Boundary  : "VTK/CHADValid_simple_new_740/boundary/bottom.vtp"
    Boundary  : "VTK/CHADValid_simple_new_740/boundary/left.vtp"
    Boundary  : "VTK/CHADValid_simple_new_740/boundary/right.vtp"
Wrote in 0.91 s, 497168 kB
Time: 38
    volScalar    : DT T gradTx gradTy gradTz
    volVector    : flux
    Internal  : "VTK/CHADValid_simple_new_760/internal.vtu"
    Boundary  : "VTK/CHADValid_simple_new_760/boundary/top.vtp"
    Boundary  : "VTK/CHADValid_simple_new_760/boundary/bottom.vtp"
    Boundary  : "VTK/CHADValid_simple_new_760/boundary/left.vtp"
    Boundary  : "VTK/CHADValid_simple_new_760/boundary/right.vtp"
Wrote in 0.89 s, 530488 kB
Time: 39
    volScalar    : DT T gradTx gradTy gradTz
    volVector    : flux
    Internal  : "VTK/CHADValid_simple_new_780/internal.vtu"
    Boundary  : "VTK/CHADValid_simple_new_780/boundary/top.vtp"
    Boundary  : "VTK/CHADValid_simple_new_780/boundary/bottom.vtp"
    Boundary  : "VTK/CHADValid_simple_new_780/boundary/left.vtp"
    Boundary  : "VTK/CHADValid_simple_new_780/boundary/right.vtp"
Wrote in 0.88 s, 497168 kB
Time: 40
    volScalar    : DT T gradTx gradTy gradTz
    volVector    : flux
    Internal  : "VTK/CHADValid_simple_new_800/internal.vtu"
    Boundary  : "VTK/CHADValid_simple_new_800/boundary/top.vtp"
    Boundary  : "VTK/CHADValid_simple_new_800/boundary/bottom.vtp"
    Boundary  : "VTK/CHADValid_simple_new_800/boundary/left.vtp"
    Boundary  : "VTK/CHADValid_simple_new_800/boundary/right.vtp"
Wrote in 0.88 s, 530488 kB
Time: 41
    volScalar    : DT T gradTx gradTy gradTz
    volVector    : flux
    Internal  : "VTK/CHADValid_simple_new_820/internal.vtu"
    Boundary  : "VTK/CHADValid_simple_new_820/boundary/top.vtp"
    Boundary  : "VTK/CHADValid_simple_new_820/boundary/bottom.vtp"
    Boundary  : "VTK/CHADValid_simple_new_820/boundary/left.vtp"
    Boundary  : "VTK/CHADValid_simple_new_820/boundary/right.vtp"
Wrote in 0.89 s, 530488 kB
Time: 42
    volScalar    : DT T gradTx gradTy gradTz
    volVector    : flux
    Internal  : "VTK/CHADValid_simple_new_840/internal.vtu"
    Boundary  : "VTK/CHADValid_simple_new_840/boundary/top.vtp"
    Boundary  : "VTK/CHADValid_simple_new_840/boundary/bottom.vtp"
    Boundary  : "VTK/CHADValid_simple_new_840/boundary/left.vtp"
    Boundary  : "VTK/CHADValid_simple_new_840/boundary/right.vtp"
Wrote in 0.91 s, 530488 kB
Time: 43
    volScalar    : DT T gradTx gradTy gradTz
    volVector    : flux
    Internal  : "VTK/CHADValid_simple_new_860/internal.vtu"
    Boundary  : "VTK/CHADValid_simple_new_860/boundary/top.vtp"
    Boundary  : "VTK/CHADValid_simple_new_860/boundary/bottom.vtp"
    Boundary  : "VTK/CHADValid_simple_new_860/boundary/left.vtp"
    Boundary  : "VTK/CHADValid_simple_new_860/boundary/right.vtp"
Wrote in 0.88 s, 530488 kB
Time: 44
    volScalar    : DT T gradTx gradTy gradTz
    volVector    : flux
    Internal  : "VTK/CHADValid_simple_new_880/internal.vtu"
    Boundary  : "VTK/CHADValid_simple_new_880/boundary/top.vtp"
    Boundary  : "VTK/CHADValid_simple_new_880/boundary/bottom.vtp"
    Boundary  : "VTK/CHADValid_simple_new_880/boundary/left.vtp"
    Boundary  : "VTK/CHADValid_simple_new_880/boundary/right.vtp"
Wrote in 0.9 s, 530488 kB
Time: 45
    volScalar    : DT T gradTx gradTy gradTz
    volVector    : flux
    Internal  : "VTK/CHADValid_simple_new_900/internal.vtu"
    Boundary  : "VTK/CHADValid_simple_new_900/boundary/top.vtp"
    Boundary  : "VTK/CHADValid_simple_new_900/boundary/bottom.vtp"
    Boundary  : "VTK/CHADValid_simple_new_900/boundary/left.vtp"
    Boundary  : "VTK/CHADValid_simple_new_900/boundary/right.vtp"
Wrote in 0.89 s, 530488 kB
Time: 46
    volScalar    : DT T gradTx gradTy gradTz
    volVector    : flux
    Internal  : "VTK/CHADValid_simple_new_920/internal.vtu"
    Boundary  : "VTK/CHADValid_simple_new_920/boundary/top.vtp"
    Boundary  : "VTK/CHADValid_simple_new_920/boundary/bottom.vtp"
    Boundary  : "VTK/CHADValid_simple_new_920/boundary/left.vtp"
    Boundary  : "VTK/CHADValid_simple_new_920/boundary/right.vtp"
Wrote in 0.9 s, 497168 kB
Time: 47
    volScalar    : DT T gradTx gradTy gradTz
    volVector    : flux
    Internal  : "VTK/CHADValid_simple_new_940/internal.vtu"
    Boundary  : "VTK/CHADValid_simple_new_940/boundary/top.vtp"
    Boundary  : "VTK/CHADValid_simple_new_940/boundary/bottom.vtp"
    Boundary  : "VTK/CHADValid_simple_new_940/boundary/left.vtp"
    Boundary  : "VTK/CHADValid_simple_new_940/boundary/right.vtp"
Wrote in 0.98 s, 530488 kB
Time: 48
    volScalar    : DT T gradTx gradTy gradTz
    volVector    : flux
    Internal  : "VTK/CHADValid_simple_new_960/internal.vtu"
    Boundary  : "VTK/CHADValid_simple_new_960/boundary/top.vtp"
    Boundary  : "VTK/CHADValid_simple_new_960/boundary/bottom.vtp"
    Boundary  : "VTK/CHADValid_simple_new_960/boundary/left.vtp"
    Boundary  : "VTK/CHADValid_simple_new_960/boundary/right.vtp"
Wrote in 0.93 s, 497168 kB
Time: 49
    volScalar    : DT T gradTx gradTy gradTz
    volVector    : flux
    Internal  : "VTK/CHADValid_simple_new_980/internal.vtu"
    Boundary  : "VTK/CHADValid_simple_new_980/boundary/top.vtp"
    Boundary  : "VTK/CHADValid_simple_new_980/boundary/bottom.vtp"
    Boundary  : "VTK/CHADValid_simple_new_980/boundary/left.vtp"
    Boundary  : "VTK/CHADValid_simple_new_980/boundary/right.vtp"
Wrote in 0.91 s, 497168 kB
Time: 50
    volScalar    : DT T gradTx gradTy gradTz
    volVector    : flux
    Internal  : "VTK/CHADValid_simple_new_1000/internal.vtu"
    Boundary  : "VTK/CHADValid_simple_new_1000/boundary/top.vtp"
    Boundary  : "VTK/CHADValid_simple_new_1000/boundary/bottom.vtp"
    Boundary  : "VTK/CHADValid_simple_new_1000/boundary/left.vtp"
    Boundary  : "VTK/CHADValid_simple_new_1000/boundary/right.vtp"
Wrote in 0.91 s, 530488 kB
Time: 51
    volScalar    : DT T gradTx gradTy gradTz
    volVector    : flux
    Internal  : "VTK/CHADValid_simple_new_1020/internal.vtu"
    Boundary  : "VTK/CHADValid_simple_new_1020/boundary/top.vtp"
    Boundary  : "VTK/CHADValid_simple_new_1020/boundary/bottom.vtp"
    Boundary  : "VTK/CHADValid_simple_new_1020/boundary/left.vtp"
    Boundary  : "VTK/CHADValid_simple_new_1020/boundary/right.vtp"
Wrote in 0.89 s, 530492 kB
Time: 52
    volScalar    : DT T gradTx gradTy gradTz
    volVector    : flux
    Internal  : "VTK/CHADValid_simple_new_1040/internal.vtu"
    Boundary  : "VTK/CHADValid_simple_new_1040/boundary/top.vtp"
    Boundary  : "VTK/CHADValid_simple_new_1040/boundary/bottom.vtp"
    Boundary  : "VTK/CHADValid_simple_new_1040/boundary/left.vtp"
    Boundary  : "VTK/CHADValid_simple_new_1040/boundary/right.vtp"
Wrote in 0.91 s, 497168 kB
Time: 53
    volScalar    : DT T gradTx gradTy gradTz
    volVector    : flux
    Internal  : "VTK/CHADValid_simple_new_1060/internal.vtu"
    Boundary  : "VTK/CHADValid_simple_new_1060/boundary/top.vtp"
    Boundary  : "VTK/CHADValid_simple_new_1060/boundary/bottom.vtp"
    Boundary  : "VTK/CHADValid_simple_new_1060/boundary/left.vtp"
    Boundary  : "VTK/CHADValid_simple_new_1060/boundary/right.vtp"
Wrote in 0.9 s, 497168 kB
Time: 54
    volScalar    : DT T gradTx gradTy gradTz
    volVector    : flux
    Internal  : "VTK/CHADValid_simple_new_1080/internal.vtu"
    Boundary  : "VTK/CHADValid_simple_new_1080/boundary/top.vtp"
    Boundary  : "VTK/CHADValid_simple_new_1080/boundary/bottom.vtp"
    Boundary  : "VTK/CHADValid_simple_new_1080/boundary/left.vtp"
    Boundary  : "VTK/CHADValid_simple_new_1080/boundary/right.vtp"
Wrote in 0.89 s, 530492 kB
Time: 55
    volScalar    : DT T gradTx gradTy gradTz
    volVector    : flux
    Internal  : "VTK/CHADValid_simple_new_1100/internal.vtu"
    Boundary  : "VTK/CHADValid_simple_new_1100/boundary/top.vtp"
    Boundary  : "VTK/CHADValid_simple_new_1100/boundary/bottom.vtp"
    Boundary  : "VTK/CHADValid_simple_new_1100/boundary/left.vtp"
    Boundary  : "VTK/CHADValid_simple_new_1100/boundary/right.vtp"
Wrote in 0.9 s, 530492 kB
Time: 56
    volScalar    : DT T gradTx gradTy gradTz
    volVector    : flux
    Internal  : "VTK/CHADValid_simple_new_1120/internal.vtu"
    Boundary  : "VTK/CHADValid_simple_new_1120/boundary/top.vtp"
    Boundary  : "VTK/CHADValid_simple_new_1120/boundary/bottom.vtp"
    Boundary  : "VTK/CHADValid_simple_new_1120/boundary/left.vtp"
    Boundary  : "VTK/CHADValid_simple_new_1120/boundary/right.vtp"
Wrote in 0.9 s, 530492 kB
Time: 57
    volScalar    : DT T gradTx gradTy gradTz
    volVector    : flux
    Internal  : "VTK/CHADValid_simple_new_1140/internal.vtu"
    Boundary  : "VTK/CHADValid_simple_new_1140/boundary/top.vtp"
    Boundary  : "VTK/CHADValid_simple_new_1140/boundary/bottom.vtp"
    Boundary  : "VTK/CHADValid_simple_new_1140/boundary/left.vtp"
    Boundary  : "VTK/CHADValid_simple_new_1140/boundary/right.vtp"
Wrote in 0.91 s, 530492 kB
Time: 58
    volScalar    : DT T gradTx gradTy gradTz
    volVector    : flux
    Internal  : "VTK/CHADValid_simple_new_1160/internal.vtu"
    Boundary  : "VTK/CHADValid_simple_new_1160/boundary/top.vtp"
    Boundary  : "VTK/CHADValid_simple_new_1160/boundary/bottom.vtp"
    Boundary  : "VTK/CHADValid_simple_new_1160/boundary/left.vtp"
    Boundary  : "VTK/CHADValid_simple_new_1160/boundary/right.vtp"
Wrote in 0.89 s, 530492 kB
Time: 59
    volScalar    : DT T gradTx gradTy gradTz
    volVector    : flux
    Internal  : "VTK/CHADValid_simple_new_1180/internal.vtu"
    Boundary  : "VTK/CHADValid_simple_new_1180/boundary/top.vtp"
    Boundary  : "VTK/CHADValid_simple_new_1180/boundary/bottom.vtp"
    Boundary  : "VTK/CHADValid_simple_new_1180/boundary/left.vtp"
    Boundary  : "VTK/CHADValid_simple_new_1180/boundary/right.vtp"
Wrote in 0.9 s, 530492 kB
Time: 60
    volScalar    : DT T gradTx gradTy gradTz
    volVector    : flux
    Internal  : "VTK/CHADValid_simple_new_1200/internal.vtu"
    Boundary  : "VTK/CHADValid_simple_new_1200/boundary/top.vtp"
    Boundary  : "VTK/CHADValid_simple_new_1200/boundary/bottom.vtp"
    Boundary  : "VTK/CHADValid_simple_new_1200/boundary/left.vtp"
    Boundary  : "VTK/CHADValid_simple_new_1200/boundary/right.vtp"
Wrote in 0.89 s, 530492 kB
Time: 61
    volScalar    : DT T gradTx gradTy gradTz
    volVector    : flux
    Internal  : "VTK/CHADValid_simple_new_1220/internal.vtu"
    Boundary  : "VTK/CHADValid_simple_new_1220/boundary/top.vtp"
    Boundary  : "VTK/CHADValid_simple_new_1220/boundary/bottom.vtp"
    Boundary  : "VTK/CHADValid_simple_new_1220/boundary/left.vtp"
    Boundary  : "VTK/CHADValid_simple_new_1220/boundary/right.vtp"
Wrote in 0.9 s, 530492 kB
Time: 62
    volScalar    : DT T gradTx gradTy gradTz
    volVector    : flux
    Internal  : "VTK/CHADValid_simple_new_1240/internal.vtu"
    Boundary  : "VTK/CHADValid_simple_new_1240/boundary/top.vtp"
    Boundary  : "VTK/CHADValid_simple_new_1240/boundary/bottom.vtp"
    Boundary  : "VTK/CHADValid_simple_new_1240/boundary/left.vtp"
    Boundary  : "VTK/CHADValid_simple_new_1240/boundary/right.vtp"
Wrote in 0.9 s, 530492 kB
Time: 63
    volScalar    : DT T gradTx gradTy gradTz
    volVector    : flux
    Internal  : "VTK/CHADValid_simple_new_1260/internal.vtu"
    Boundary  : "VTK/CHADValid_simple_new_1260/boundary/top.vtp"
    Boundary  : "VTK/CHADValid_simple_new_1260/boundary/bottom.vtp"
    Boundary  : "VTK/CHADValid_simple_new_1260/boundary/left.vtp"
    Boundary  : "VTK/CHADValid_simple_new_1260/boundary/right.vtp"
Wrote in 0.89 s, 530492 kB
Time: 64
    volScalar    : DT T gradTx gradTy gradTz
    volVector    : flux
    Internal  : "VTK/CHADValid_simple_new_1280/internal.vtu"
    Boundary  : "VTK/CHADValid_simple_new_1280/boundary/top.vtp"
    Boundary  : "VTK/CHADValid_simple_new_1280/boundary/bottom.vtp"
    Boundary  : "VTK/CHADValid_simple_new_1280/boundary/left.vtp"
    Boundary  : "VTK/CHADValid_simple_new_1280/boundary/right.vtp"
Wrote in 0.9 s, 530492 kB
Time: 65
    volScalar    : DT T gradTx gradTy gradTz
    volVector    : flux
    Internal  : "VTK/CHADValid_simple_new_1300/internal.vtu"
    Boundary  : "VTK/CHADValid_simple_new_1300/boundary/top.vtp"
    Boundary  : "VTK/CHADValid_simple_new_1300/boundary/bottom.vtp"
    Boundary  : "VTK/CHADValid_simple_new_1300/boundary/left.vtp"
    Boundary  : "VTK/CHADValid_simple_new_1300/boundary/right.vtp"
Wrote in 0.9 s, 530496 kB
Time: 66
    volScalar    : DT T gradTx gradTy gradTz
    volVector    : flux
    Internal  : "VTK/CHADValid_simple_new_1320/internal.vtu"
    Boundary  : "VTK/CHADValid_simple_new_1320/boundary/top.vtp"
    Boundary  : "VTK/CHADValid_simple_new_1320/boundary/bottom.vtp"
    Boundary  : "VTK/CHADValid_simple_new_1320/boundary/left.vtp"
    Boundary  : "VTK/CHADValid_simple_new_1320/boundary/right.vtp"
Wrote in 0.9 s, 530496 kB
Time: 67
    volScalar    : DT T gradTx gradTy gradTz
    volVector    : flux
    Internal  : "VTK/CHADValid_simple_new_1340/internal.vtu"
    Boundary  : "VTK/CHADValid_simple_new_1340/boundary/top.vtp"
    Boundary  : "VTK/CHADValid_simple_new_1340/boundary/bottom.vtp"
    Boundary  : "VTK/CHADValid_simple_new_1340/boundary/left.vtp"
    Boundary  : "VTK/CHADValid_simple_new_1340/boundary/right.vtp"
Wrote in 0.9 s, 530496 kB
Time: 68
    volScalar    : DT T gradTx gradTy gradTz
    volVector    : flux
    Internal  : "VTK/CHADValid_simple_new_1360/internal.vtu"
    Boundary  : "VTK/CHADValid_simple_new_1360/boundary/top.vtp"
    Boundary  : "VTK/CHADValid_simple_new_1360/boundary/bottom.vtp"
    Boundary  : "VTK/CHADValid_simple_new_1360/boundary/left.vtp"
    Boundary  : "VTK/CHADValid_simple_new_1360/boundary/right.vtp"
Wrote in 0.9 s, 499084 kB
Time: 69
    volScalar    : DT T gradTx gradTy gradTz
    volVector    : flux
    Internal  : "VTK/CHADValid_simple_new_1380/internal.vtu"
    Boundary  : "VTK/CHADValid_simple_new_1380/boundary/top.vtp"
    Boundary  : "VTK/CHADValid_simple_new_1380/boundary/bottom.vtp"
    Boundary  : "VTK/CHADValid_simple_new_1380/boundary/left.vtp"
    Boundary  : "VTK/CHADValid_simple_new_1380/boundary/right.vtp"
Wrote in 0.9 s, 530496 kB
Time: 70
    volScalar    : DT T gradTx gradTy gradTz
    volVector    : flux
    Internal  : "VTK/CHADValid_simple_new_1400/internal.vtu"
    Boundary  : "VTK/CHADValid_simple_new_1400/boundary/top.vtp"
    Boundary  : "VTK/CHADValid_simple_new_1400/boundary/bottom.vtp"
    Boundary  : "VTK/CHADValid_simple_new_1400/boundary/left.vtp"
    Boundary  : "VTK/CHADValid_simple_new_1400/boundary/right.vtp"
Wrote in 0.9 s, 530496 kB
Time: 71
    volScalar    : DT T gradTx gradTy gradTz
    volVector    : flux
    Internal  : "VTK/CHADValid_simple_new_1420/internal.vtu"
    Boundary  : "VTK/CHADValid_simple_new_1420/boundary/top.vtp"
    Boundary  : "VTK/CHADValid_simple_new_1420/boundary/bottom.vtp"
    Boundary  : "VTK/CHADValid_simple_new_1420/boundary/left.vtp"
    Boundary  : "VTK/CHADValid_simple_new_1420/boundary/right.vtp"
Wrote in 0.91 s, 530496 kB
Time: 72
    volScalar    : DT T gradTx gradTy gradTz
    volVector    : flux
    Internal  : "VTK/CHADValid_simple_new_1440/internal.vtu"
    Boundary  : "VTK/CHADValid_simple_new_1440/boundary/top.vtp"
    Boundary  : "VTK/CHADValid_simple_new_1440/boundary/bottom.vtp"
    Boundary  : "VTK/CHADValid_simple_new_1440/boundary/left.vtp"
    Boundary  : "VTK/CHADValid_simple_new_1440/boundary/right.vtp"
Wrote in 0.9 s, 530496 kB
Time: 73
    volScalar    : DT T gradTx gradTy gradTz
    volVector    : flux
    Internal  : "VTK/CHADValid_simple_new_1460/internal.vtu"
    Boundary  : "VTK/CHADValid_simple_new_1460/boundary/top.vtp"
    Boundary  : "VTK/CHADValid_simple_new_1460/boundary/bottom.vtp"
    Boundary  : "VTK/CHADValid_simple_new_1460/boundary/left.vtp"
    Boundary  : "VTK/CHADValid_simple_new_1460/boundary/right.vtp"
Wrote in 0.89 s, 542260 kB
Time: 74
    volScalar    : DT T gradTx gradTy gradTz
    volVector    : flux
    Internal  : "VTK/CHADValid_simple_new_1480/internal.vtu"
    Boundary  : "VTK/CHADValid_simple_new_1480/boundary/top.vtp"
    Boundary  : "VTK/CHADValid_simple_new_1480/boundary/bottom.vtp"
    Boundary  : "VTK/CHADValid_simple_new_1480/boundary/left.vtp"
    Boundary  : "VTK/CHADValid_simple_new_1480/boundary/right.vtp"
Wrote in 0.91 s, 542256 kB
Time: 75
    volScalar    : DT T gradTx gradTy gradTz
    volVector    : flux
    Internal  : "VTK/CHADValid_simple_new_1500/internal.vtu"
    Boundary  : "VTK/CHADValid_simple_new_1500/boundary/top.vtp"
    Boundary  : "VTK/CHADValid_simple_new_1500/boundary/bottom.vtp"
    Boundary  : "VTK/CHADValid_simple_new_1500/boundary/left.vtp"
    Boundary  : "VTK/CHADValid_simple_new_1500/boundary/right.vtp"
Wrote in 0.9 s, 542256 kB
Time: 76
    volScalar    : DT T gradTx gradTy gradTz
    volVector    : flux
    Internal  : "VTK/CHADValid_simple_new_1520/internal.vtu"
    Boundary  : "VTK/CHADValid_simple_new_1520/boundary/top.vtp"
    Boundary  : "VTK/CHADValid_simple_new_1520/boundary/bottom.vtp"
    Boundary  : "VTK/CHADValid_simple_new_1520/boundary/left.vtp"
    Boundary  : "VTK/CHADValid_simple_new_1520/boundary/right.vtp"
Wrote in 0.9 s, 542256 kB
Time: 77
    volScalar    : DT T gradTx gradTy gradTz
    volVector    : flux
    Internal  : "VTK/CHADValid_simple_new_1540/internal.vtu"
    Boundary  : "VTK/CHADValid_simple_new_1540/boundary/top.vtp"
    Boundary  : "VTK/CHADValid_simple_new_1540/boundary/bottom.vtp"
    Boundary  : "VTK/CHADValid_simple_new_1540/boundary/left.vtp"
    Boundary  : "VTK/CHADValid_simple_new_1540/boundary/right.vtp"
Wrote in 0.91 s, 542256 kB
Time: 78
    volScalar    : DT T gradTx gradTy gradTz
    volVector    : flux
    Internal  : "VTK/CHADValid_simple_new_1560/internal.vtu"
    Boundary  : "VTK/CHADValid_simple_new_1560/boundary/top.vtp"
    Boundary  : "VTK/CHADValid_simple_new_1560/boundary/bottom.vtp"
    Boundary  : "VTK/CHADValid_simple_new_1560/boundary/left.vtp"
    Boundary  : "VTK/CHADValid_simple_new_1560/boundary/right.vtp"
Wrote in 0.9 s, 542256 kB
Time: 79
    volScalar    : DT T gradTx gradTy gradTz
    volVector    : flux
    Internal  : "VTK/CHADValid_simple_new_1580/internal.vtu"
    Boundary  : "VTK/CHADValid_simple_new_1580/boundary/top.vtp"
    Boundary  : "VTK/CHADValid_simple_new_1580/boundary/bottom.vtp"
    Boundary  : "VTK/CHADValid_simple_new_1580/boundary/left.vtp"
    Boundary  : "VTK/CHADValid_simple_new_1580/boundary/right.vtp"
Wrote in 0.92 s, 542256 kB
Time: 80
    volScalar    : DT T gradTx gradTy gradTz
    volVector    : flux
    Internal  : "VTK/CHADValid_simple_new_1600/internal.vtu"
    Boundary  : "VTK/CHADValid_simple_new_1600/boundary/top.vtp"
    Boundary  : "VTK/CHADValid_simple_new_1600/boundary/bottom.vtp"
    Boundary  : "VTK/CHADValid_simple_new_1600/boundary/left.vtp"
    Boundary  : "VTK/CHADValid_simple_new_1600/boundary/right.vtp"
Wrote in 0.91 s, 542256 kB
Time: 81
    volScalar    : DT T gradTx gradTy gradTz
    volVector    : flux
    Internal  : "VTK/CHADValid_simple_new_1620/internal.vtu"
    Boundary  : "VTK/CHADValid_simple_new_1620/boundary/top.vtp"
    Boundary  : "VTK/CHADValid_simple_new_1620/boundary/bottom.vtp"
    Boundary  : "VTK/CHADValid_simple_new_1620/boundary/left.vtp"
    Boundary  : "VTK/CHADValid_simple_new_1620/boundary/right.vtp"
Wrote in 0.91 s, 542256 kB
Time: 82
    volScalar    : DT T gradTx gradTy gradTz
    volVector    : flux
    Internal  : "VTK/CHADValid_simple_new_1640/internal.vtu"
    Boundary  : "VTK/CHADValid_simple_new_1640/boundary/top.vtp"
    Boundary  : "VTK/CHADValid_simple_new_1640/boundary/bottom.vtp"
    Boundary  : "VTK/CHADValid_simple_new_1640/boundary/left.vtp"
    Boundary  : "VTK/CHADValid_simple_new_1640/boundary/right.vtp"
Wrote in 0.9 s, 542256 kB
Time: 83
    volScalar    : DT T gradTx gradTy gradTz
    volVector    : flux
    Internal  : "VTK/CHADValid_simple_new_1660/internal.vtu"
    Boundary  : "VTK/CHADValid_simple_new_1660/boundary/top.vtp"
    Boundary  : "VTK/CHADValid_simple_new_1660/boundary/bottom.vtp"
    Boundary  : "VTK/CHADValid_simple_new_1660/boundary/left.vtp"
    Boundary  : "VTK/CHADValid_simple_new_1660/boundary/right.vtp"
Wrote in 0.91 s, 542256 kB
Time: 84
    volScalar    : DT T gradTx gradTy gradTz
    volVector    : flux
    Internal  : "VTK/CHADValid_simple_new_1680/internal.vtu"
    Boundary  : "VTK/CHADValid_simple_new_1680/boundary/top.vtp"
    Boundary  : "VTK/CHADValid_simple_new_1680/boundary/bottom.vtp"
    Boundary  : "VTK/CHADValid_simple_new_1680/boundary/left.vtp"
    Boundary  : "VTK/CHADValid_simple_new_1680/boundary/right.vtp"
Wrote in 0.91 s, 542256 kB
Time: 85
    volScalar    : DT T gradTx gradTy gradTz
    volVector    : flux
    Internal  : "VTK/CHADValid_simple_new_1700/internal.vtu"
    Boundary  : "VTK/CHADValid_simple_new_1700/boundary/top.vtp"
    Boundary  : "VTK/CHADValid_simple_new_1700/boundary/bottom.vtp"
    Boundary  : "VTK/CHADValid_simple_new_1700/boundary/left.vtp"
    Boundary  : "VTK/CHADValid_simple_new_1700/boundary/right.vtp"
Wrote in 0.9 s, 542256 kB
Time: 86
    volScalar    : DT T gradTx gradTy gradTz
    volVector    : flux
    Internal  : "VTK/CHADValid_simple_new_1720/internal.vtu"
    Boundary  : "VTK/CHADValid_simple_new_1720/boundary/top.vtp"
    Boundary  : "VTK/CHADValid_simple_new_1720/boundary/bottom.vtp"
    Boundary  : "VTK/CHADValid_simple_new_1720/boundary/left.vtp"
    Boundary  : "VTK/CHADValid_simple_new_1720/boundary/right.vtp"
Wrote in 0.92 s, 542256 kB
Time: 87
    volScalar    : DT T gradTx gradTy gradTz
    volVector    : flux
    Internal  : "VTK/CHADValid_simple_new_1740/internal.vtu"
    Boundary  : "VTK/CHADValid_simple_new_1740/boundary/top.vtp"
    Boundary  : "VTK/CHADValid_simple_new_1740/boundary/bottom.vtp"
    Boundary  : "VTK/CHADValid_simple_new_1740/boundary/left.vtp"
    Boundary  : "VTK/CHADValid_simple_new_1740/boundary/right.vtp"
Wrote in 0.91 s, 542256 kB
Time: 88
    volScalar    : DT T gradTx gradTy gradTz
    volVector    : flux
    Internal  : "VTK/CHADValid_simple_new_1760/internal.vtu"
    Boundary  : "VTK/CHADValid_simple_new_1760/boundary/top.vtp"
    Boundary  : "VTK/CHADValid_simple_new_1760/boundary/bottom.vtp"
    Boundary  : "VTK/CHADValid_simple_new_1760/boundary/left.vtp"
    Boundary  : "VTK/CHADValid_simple_new_1760/boundary/right.vtp"
Wrote in 0.91 s, 542256 kB
Time: 89
    volScalar    : DT T gradTx gradTy gradTz
    volVector    : flux
    Internal  : "VTK/CHADValid_simple_new_1780/internal.vtu"
    Boundary  : "VTK/CHADValid_simple_new_1780/boundary/top.vtp"
    Boundary  : "VTK/CHADValid_simple_new_1780/boundary/bottom.vtp"
    Boundary  : "VTK/CHADValid_simple_new_1780/boundary/left.vtp"
    Boundary  : "VTK/CHADValid_simple_new_1780/boundary/right.vtp"
Wrote in 0.91 s, 542256 kB
Time: 90
    volScalar    : DT T gradTx gradTy gradTz
    volVector    : flux
    Internal  : "VTK/CHADValid_simple_new_1800/internal.vtu"
    Boundary  : "VTK/CHADValid_simple_new_1800/boundary/top.vtp"
    Boundary  : "VTK/CHADValid_simple_new_1800/boundary/bottom.vtp"
    Boundary  : "VTK/CHADValid_simple_new_1800/boundary/left.vtp"
    Boundary  : "VTK/CHADValid_simple_new_1800/boundary/right.vtp"
Wrote in 0.92 s, 542256 kB
Time: 91
    volScalar    : DT T gradTx gradTy gradTz
    volVector    : flux
    Internal  : "VTK/CHADValid_simple_new_1820/internal.vtu"
    Boundary  : "VTK/CHADValid_simple_new_1820/boundary/top.vtp"
    Boundary  : "VTK/CHADValid_simple_new_1820/boundary/bottom.vtp"
    Boundary  : "VTK/CHADValid_simple_new_1820/boundary/left.vtp"
    Boundary  : "VTK/CHADValid_simple_new_1820/boundary/right.vtp"
Wrote in 0.91 s, 542256 kB
Time: 92
    volScalar    : DT T gradTx gradTy gradTz
    volVector    : flux
    Internal  : "VTK/CHADValid_simple_new_1840/internal.vtu"
    Boundary  : "VTK/CHADValid_simple_new_1840/boundary/top.vtp"
    Boundary  : "VTK/CHADValid_simple_new_1840/boundary/bottom.vtp"
    Boundary  : "VTK/CHADValid_simple_new_1840/boundary/left.vtp"
    Boundary  : "VTK/CHADValid_simple_new_1840/boundary/right.vtp"
Wrote in 0.92 s, 542256 kB
Time: 93
    volScalar    : DT T gradTx gradTy gradTz
    volVector    : flux
    Internal  : "VTK/CHADValid_simple_new_1860/internal.vtu"
    Boundary  : "VTK/CHADValid_simple_new_1860/boundary/top.vtp"
    Boundary  : "VTK/CHADValid_simple_new_1860/boundary/bottom.vtp"
    Boundary  : "VTK/CHADValid_simple_new_1860/boundary/left.vtp"
    Boundary  : "VTK/CHADValid_simple_new_1860/boundary/right.vtp"
Wrote in 0.91 s, 542256 kB
Time: 94
    volScalar    : DT T gradTx gradTy gradTz
    volVector    : flux
    Internal  : "VTK/CHADValid_simple_new_1880/internal.vtu"
    Boundary  : "VTK/CHADValid_simple_new_1880/boundary/top.vtp"
    Boundary  : "VTK/CHADValid_simple_new_1880/boundary/bottom.vtp"
    Boundary  : "VTK/CHADValid_simple_new_1880/boundary/left.vtp"
    Boundary  : "VTK/CHADValid_simple_new_1880/boundary/right.vtp"
Wrote in 0.91 s, 542256 kB
Time: 95
    volScalar    : DT T gradTx gradTy gradTz
    volVector    : flux
    Internal  : "VTK/CHADValid_simple_new_1900/internal.vtu"
    Boundary  : "VTK/CHADValid_simple_new_1900/boundary/top.vtp"
    Boundary  : "VTK/CHADValid_simple_new_1900/boundary/bottom.vtp"
    Boundary  : "VTK/CHADValid_simple_new_1900/boundary/left.vtp"
    Boundary  : "VTK/CHADValid_simple_new_1900/boundary/right.vtp"
Wrote in 0.91 s, 542256 kB
Time: 96
    volScalar    : DT T gradTx gradTy gradTz
    volVector    : flux
    Internal  : "VTK/CHADValid_simple_new_1920/internal.vtu"
    Boundary  : "VTK/CHADValid_simple_new_1920/boundary/top.vtp"
    Boundary  : "VTK/CHADValid_simple_new_1920/boundary/bottom.vtp"
    Boundary  : "VTK/CHADValid_simple_new_1920/boundary/left.vtp"
    Boundary  : "VTK/CHADValid_simple_new_1920/boundary/right.vtp"
Wrote in 0.92 s, 542256 kB
Time: 97
    volScalar    : DT T gradTx gradTy gradTz
    volVector    : flux
    Internal  : "VTK/CHADValid_simple_new_1940/internal.vtu"
    Boundary  : "VTK/CHADValid_simple_new_1940/boundary/top.vtp"
    Boundary  : "VTK/CHADValid_simple_new_1940/boundary/bottom.vtp"
    Boundary  : "VTK/CHADValid_simple_new_1940/boundary/left.vtp"
    Boundary  : "VTK/CHADValid_simple_new_1940/boundary/right.vtp"
Wrote in 0.91 s, 542256 kB
Time: 98
    volScalar    : DT T gradTx gradTy gradTz
    volVector    : flux
    Internal  : "VTK/CHADValid_simple_new_1960/internal.vtu"
    Boundary  : "VTK/CHADValid_simple_new_1960/boundary/top.vtp"
    Boundary  : "VTK/CHADValid_simple_new_1960/boundary/bottom.vtp"
    Boundary  : "VTK/CHADValid_simple_new_1960/boundary/left.vtp"
    Boundary  : "VTK/CHADValid_simple_new_1960/boundary/right.vtp"
Wrote in 0.92 s, 542256 kB
Time: 99
    volScalar    : DT T gradTx gradTy gradTz
    volVector    : flux
    Internal  : "VTK/CHADValid_simple_new_1980/internal.vtu"
    Boundary  : "VTK/CHADValid_simple_new_1980/boundary/top.vtp"
    Boundary  : "VTK/CHADValid_simple_new_1980/boundary/bottom.vtp"
    Boundary  : "VTK/CHADValid_simple_new_1980/boundary/left.vtp"
    Boundary  : "VTK/CHADValid_simple_new_1980/boundary/right.vtp"
Wrote in 0.94 s, 542256 kB
Time: 100
    volScalar    : DT T gradTx gradTy gradTz
    volVector    : flux
    Internal  : "VTK/CHADValid_simple_new_2000/internal.vtu"
    Boundary  : "VTK/CHADValid_simple_new_2000/boundary/top.vtp"
    Boundary  : "VTK/CHADValid_simple_new_2000/boundary/bottom.vtp"
    Boundary  : "VTK/CHADValid_simple_new_2000/boundary/left.vtp"
    Boundary  : "VTK/CHADValid_simple_new_2000/boundary/right.vtp"
Wrote in 0.92 s, 542256 kB
Time: 101
    volScalar    : DT T gradTx gradTy gradTz
    volVector    : flux
    Internal  : "VTK/CHADValid_simple_new_2020/internal.vtu"
    Boundary  : "VTK/CHADValid_simple_new_2020/boundary/top.vtp"
    Boundary  : "VTK/CHADValid_simple_new_2020/boundary/bottom.vtp"
    Boundary  : "VTK/CHADValid_simple_new_2020/boundary/left.vtp"
    Boundary  : "VTK/CHADValid_simple_new_2020/boundary/right.vtp"
Wrote in 0.93 s, 542256 kB
Time: 102
    volScalar    : DT T gradTx gradTy gradTz
    volVector    : flux
    Internal  : "VTK/CHADValid_simple_new_2040/internal.vtu"
    Boundary  : "VTK/CHADValid_simple_new_2040/boundary/top.vtp"
    Boundary  : "VTK/CHADValid_simple_new_2040/boundary/bottom.vtp"
    Boundary  : "VTK/CHADValid_simple_new_2040/boundary/left.vtp"
    Boundary  : "VTK/CHADValid_simple_new_2040/boundary/right.vtp"
Wrote in 0.92 s, 542256 kB
Time: 103
    volScalar    : DT T gradTx gradTy gradTz
    volVector    : flux
    Internal  : "VTK/CHADValid_simple_new_2060/internal.vtu"
    Boundary  : "VTK/CHADValid_simple_new_2060/boundary/top.vtp"
    Boundary  : "VTK/CHADValid_simple_new_2060/boundary/bottom.vtp"
    Boundary  : "VTK/CHADValid_simple_new_2060/boundary/left.vtp"
    Boundary  : "VTK/CHADValid_simple_new_2060/boundary/right.vtp"
Wrote in 0.91 s, 542256 kB
Time: 104
    volScalar    : DT T gradTx gradTy gradTz
    volVector    : flux
    Internal  : "VTK/CHADValid_simple_new_2080/internal.vtu"
    Boundary  : "VTK/CHADValid_simple_new_2080/boundary/top.vtp"
    Boundary  : "VTK/CHADValid_simple_new_2080/boundary/bottom.vtp"
    Boundary  : "VTK/CHADValid_simple_new_2080/boundary/left.vtp"
    Boundary  : "VTK/CHADValid_simple_new_2080/boundary/right.vtp"
Wrote in 0.92 s, 542256 kB
Time: 105
    volScalar    : DT T gradTx gradTy gradTz
    volVector    : flux
    Internal  : "VTK/CHADValid_simple_new_2100/internal.vtu"
    Boundary  : "VTK/CHADValid_simple_new_2100/boundary/top.vtp"
    Boundary  : "VTK/CHADValid_simple_new_2100/boundary/bottom.vtp"
    Boundary  : "VTK/CHADValid_simple_new_2100/boundary/left.vtp"
    Boundary  : "VTK/CHADValid_simple_new_2100/boundary/right.vtp"
Wrote in 0.92 s, 542256 kB
Time: 106
    volScalar    : DT T gradTx gradTy gradTz
    volVector    : flux
    Internal  : "VTK/CHADValid_simple_new_2120/internal.vtu"
    Boundary  : "VTK/CHADValid_simple_new_2120/boundary/top.vtp"
    Boundary  : "VTK/CHADValid_simple_new_2120/boundary/bottom.vtp"
    Boundary  : "VTK/CHADValid_simple_new_2120/boundary/left.vtp"
    Boundary  : "VTK/CHADValid_simple_new_2120/boundary/right.vtp"
Wrote in 0.92 s, 542256 kB
Time: 107
    volScalar    : DT T gradTx gradTy gradTz
    volVector    : flux
    Internal  : "VTK/CHADValid_simple_new_2140/internal.vtu"
    Boundary  : "VTK/CHADValid_simple_new_2140/boundary/top.vtp"
    Boundary  : "VTK/CHADValid_simple_new_2140/boundary/bottom.vtp"
    Boundary  : "VTK/CHADValid_simple_new_2140/boundary/left.vtp"
    Boundary  : "VTK/CHADValid_simple_new_2140/boundary/right.vtp"
Wrote in 0.93 s, 542256 kB
Time: 108
    volScalar    : DT T gradTx gradTy gradTz
    volVector    : flux
    Internal  : "VTK/CHADValid_simple_new_2160/internal.vtu"
    Boundary  : "VTK/CHADValid_simple_new_2160/boundary/top.vtp"
    Boundary  : "VTK/CHADValid_simple_new_2160/boundary/bottom.vtp"
    Boundary  : "VTK/CHADValid_simple_new_2160/boundary/left.vtp"
    Boundary  : "VTK/CHADValid_simple_new_2160/boundary/right.vtp"
Wrote in 0.93 s, 542256 kB
Time: 109
    volScalar    : DT T gradTx gradTy gradTz
    volVector    : flux
    Internal  : "VTK/CHADValid_simple_new_2180/internal.vtu"
    Boundary  : "VTK/CHADValid_simple_new_2180/boundary/top.vtp"
    Boundary  : "VTK/CHADValid_simple_new_2180/boundary/bottom.vtp"
    Boundary  : "VTK/CHADValid_simple_new_2180/boundary/left.vtp"
    Boundary  : "VTK/CHADValid_simple_new_2180/boundary/right.vtp"
Wrote in 0.94 s, 542256 kB
Time: 110
    volScalar    : DT T gradTx gradTy gradTz
    volVector    : flux
    Internal  : "VTK/CHADValid_simple_new_2200/internal.vtu"
    Boundary  : "VTK/CHADValid_simple_new_2200/boundary/top.vtp"
    Boundary  : "VTK/CHADValid_simple_new_2200/boundary/bottom.vtp"
    Boundary  : "VTK/CHADValid_simple_new_2200/boundary/left.vtp"
    Boundary  : "VTK/CHADValid_simple_new_2200/boundary/right.vtp"
Wrote in 0.94 s, 542256 kB
Time: 111
    volScalar    : DT T gradTx gradTy gradTz
    volVector    : flux
    Internal  : "VTK/CHADValid_simple_new_2220/internal.vtu"
    Boundary  : "VTK/CHADValid_simple_new_2220/boundary/top.vtp"
    Boundary  : "VTK/CHADValid_simple_new_2220/boundary/bottom.vtp"
    Boundary  : "VTK/CHADValid_simple_new_2220/boundary/left.vtp"
    Boundary  : "VTK/CHADValid_simple_new_2220/boundary/right.vtp"
Wrote in 0.92 s, 542256 kB
Time: 112
    volScalar    : DT T gradTx gradTy gradTz
    volVector    : flux
    Internal  : "VTK/CHADValid_simple_new_2240/internal.vtu"
    Boundary  : "VTK/CHADValid_simple_new_2240/boundary/top.vtp"
    Boundary  : "VTK/CHADValid_simple_new_2240/boundary/bottom.vtp"
    Boundary  : "VTK/CHADValid_simple_new_2240/boundary/left.vtp"
    Boundary  : "VTK/CHADValid_simple_new_2240/boundary/right.vtp"
Wrote in 0.93 s, 542256 kB
Time: 113
    volScalar    : DT T gradTx gradTy gradTz
    volVector    : flux
    Internal  : "VTK/CHADValid_simple_new_2260/internal.vtu"
    Boundary  : "VTK/CHADValid_simple_new_2260/boundary/top.vtp"
    Boundary  : "VTK/CHADValid_simple_new_2260/boundary/bottom.vtp"
    Boundary  : "VTK/CHADValid_simple_new_2260/boundary/left.vtp"
    Boundary  : "VTK/CHADValid_simple_new_2260/boundary/right.vtp"
Wrote in 0.93 s, 542256 kB
Time: 114
    volScalar    : DT T gradTx gradTy gradTz
    volVector    : flux
    Internal  : "VTK/CHADValid_simple_new_2280/internal.vtu"
    Boundary  : "VTK/CHADValid_simple_new_2280/boundary/top.vtp"
    Boundary  : "VTK/CHADValid_simple_new_2280/boundary/bottom.vtp"
    Boundary  : "VTK/CHADValid_simple_new_2280/boundary/left.vtp"
    Boundary  : "VTK/CHADValid_simple_new_2280/boundary/right.vtp"
Wrote in 0.92 s, 542256 kB
Time: 115
    volScalar    : DT T gradTx gradTy gradTz
    volVector    : flux
    Internal  : "VTK/CHADValid_simple_new_2300/internal.vtu"
    Boundary  : "VTK/CHADValid_simple_new_2300/boundary/top.vtp"
    Boundary  : "VTK/CHADValid_simple_new_2300/boundary/bottom.vtp"
    Boundary  : "VTK/CHADValid_simple_new_2300/boundary/left.vtp"
    Boundary  : "VTK/CHADValid_simple_new_2300/boundary/right.vtp"
Wrote in 0.93 s, 542256 kB
Time: 116
    volScalar    : DT T gradTx gradTy gradTz
    volVector    : flux
    Internal  : "VTK/CHADValid_simple_new_2320/internal.vtu"
    Boundary  : "VTK/CHADValid_simple_new_2320/boundary/top.vtp"
    Boundary  : "VTK/CHADValid_simple_new_2320/boundary/bottom.vtp"
    Boundary  : "VTK/CHADValid_simple_new_2320/boundary/left.vtp"
    Boundary  : "VTK/CHADValid_simple_new_2320/boundary/right.vtp"
Wrote in 0.95 s, 542256 kB
Time: 117
    volScalar    : DT T gradTx gradTy gradTz
    volVector    : flux
    Internal  : "VTK/CHADValid_simple_new_2340/internal.vtu"
    Boundary  : "VTK/CHADValid_simple_new_2340/boundary/top.vtp"
    Boundary  : "VTK/CHADValid_simple_new_2340/boundary/bottom.vtp"
    Boundary  : "VTK/CHADValid_simple_new_2340/boundary/left.vtp"
    Boundary  : "VTK/CHADValid_simple_new_2340/boundary/right.vtp"
Wrote in 0.94 s, 542256 kB
Time: 118
    volScalar    : DT T gradTx gradTy gradTz
    volVector    : flux
    Internal  : "VTK/CHADValid_simple_new_2360/internal.vtu"
    Boundary  : "VTK/CHADValid_simple_new_2360/boundary/top.vtp"
    Boundary  : "VTK/CHADValid_simple_new_2360/boundary/bottom.vtp"
    Boundary  : "VTK/CHADValid_simple_new_2360/boundary/left.vtp"
    Boundary  : "VTK/CHADValid_simple_new_2360/boundary/right.vtp"
Wrote in 0.98 s, 542256 kB
Time: 119
    volScalar    : DT T gradTx gradTy gradTz
    volVector    : flux
    Internal  : "VTK/CHADValid_simple_new_2380/internal.vtu"
    Boundary  : "VTK/CHADValid_simple_new_2380/boundary/top.vtp"
    Boundary  : "VTK/CHADValid_simple_new_2380/boundary/bottom.vtp"
    Boundary  : "VTK/CHADValid_simple_new_2380/boundary/left.vtp"
    Boundary  : "VTK/CHADValid_simple_new_2380/boundary/right.vtp"
Wrote in 1.04 s, 542256 kB
Time: 120
    volScalar    : DT T gradTx gradTy gradTz
    volVector    : flux
    Internal  : "VTK/CHADValid_simple_new_2400/internal.vtu"
    Boundary  : "VTK/CHADValid_simple_new_2400/boundary/top.vtp"
    Boundary  : "VTK/CHADValid_simple_new_2400/boundary/bottom.vtp"
    Boundary  : "VTK/CHADValid_simple_new_2400/boundary/left.vtp"
    Boundary  : "VTK/CHADValid_simple_new_2400/boundary/right.vtp"
Wrote in 0.99 s, 542256 kB
Time: 121
    volScalar    : DT T gradTx gradTy gradTz
    volVector    : flux
    Internal  : "VTK/CHADValid_simple_new_2420/internal.vtu"
    Boundary  : "VTK/CHADValid_simple_new_2420/boundary/top.vtp"
    Boundary  : "VTK/CHADValid_simple_new_2420/boundary/bottom.vtp"
    Boundary  : "VTK/CHADValid_simple_new_2420/boundary/left.vtp"
    Boundary  : "VTK/CHADValid_simple_new_2420/boundary/right.vtp"
Wrote in 1.01 s, 542256 kB
Time: 122
    volScalar    : DT T gradTx gradTy gradTz
    volVector    : flux
    Internal  : "VTK/CHADValid_simple_new_2440/internal.vtu"
    Boundary  : "VTK/CHADValid_simple_new_2440/boundary/top.vtp"
    Boundary  : "VTK/CHADValid_simple_new_2440/boundary/bottom.vtp"
    Boundary  : "VTK/CHADValid_simple_new_2440/boundary/left.vtp"
    Boundary  : "VTK/CHADValid_simple_new_2440/boundary/right.vtp"
Wrote in 0.93 s, 542256 kB
Time: 123
    volScalar    : DT T gradTx gradTy gradTz
    volVector    : flux
    Internal  : "VTK/CHADValid_simple_new_2460/internal.vtu"
    Boundary  : "VTK/CHADValid_simple_new_2460/boundary/top.vtp"
    Boundary  : "VTK/CHADValid_simple_new_2460/boundary/bottom.vtp"
    Boundary  : "VTK/CHADValid_simple_new_2460/boundary/left.vtp"
    Boundary  : "VTK/CHADValid_simple_new_2460/boundary/right.vtp"
Wrote in 0.93 s, 542256 kB
Time: 124
    volScalar    : DT T gradTx gradTy gradTz
    volVector    : flux
    Internal  : "VTK/CHADValid_simple_new_2480/internal.vtu"
    Boundary  : "VTK/CHADValid_simple_new_2480/boundary/top.vtp"
    Boundary  : "VTK/CHADValid_simple_new_2480/boundary/bottom.vtp"
    Boundary  : "VTK/CHADValid_simple_new_2480/boundary/left.vtp"
    Boundary  : "VTK/CHADValid_simple_new_2480/boundary/right.vtp"
Wrote in 0.92 s, 542256 kB
Time: 125
    volScalar    : DT T gradTx gradTy gradTz
    volVector    : flux
    Internal  : "VTK/CHADValid_simple_new_2500/internal.vtu"
    Boundary  : "VTK/CHADValid_simple_new_2500/boundary/top.vtp"
    Boundary  : "VTK/CHADValid_simple_new_2500/boundary/bottom.vtp"
    Boundary  : "VTK/CHADValid_simple_new_2500/boundary/left.vtp"
    Boundary  : "VTK/CHADValid_simple_new_2500/boundary/right.vtp"
Wrote in 0.94 s, 542256 kB
Time: 126
    volScalar    : DT T gradTx gradTy gradTz
    volVector    : flux
    Internal  : "VTK/CHADValid_simple_new_2520/internal.vtu"
    Boundary  : "VTK/CHADValid_simple_new_2520/boundary/top.vtp"
    Boundary  : "VTK/CHADValid_simple_new_2520/boundary/bottom.vtp"
    Boundary  : "VTK/CHADValid_simple_new_2520/boundary/left.vtp"
    Boundary  : "VTK/CHADValid_simple_new_2520/boundary/right.vtp"
Wrote in 0.92 s, 542256 kB
Time: 127
    volScalar    : DT T gradTx gradTy gradTz
    volVector    : flux
    Internal  : "VTK/CHADValid_simple_new_2540/internal.vtu"
    Boundary  : "VTK/CHADValid_simple_new_2540/boundary/top.vtp"
    Boundary  : "VTK/CHADValid_simple_new_2540/boundary/bottom.vtp"
    Boundary  : "VTK/CHADValid_simple_new_2540/boundary/left.vtp"
    Boundary  : "VTK/CHADValid_simple_new_2540/boundary/right.vtp"
Wrote in 0.93 s, 542256 kB
Time: 128
    volScalar    : DT T gradTx gradTy gradTz
    volVector    : flux
    Internal  : "VTK/CHADValid_simple_new_2560/internal.vtu"
    Boundary  : "VTK/CHADValid_simple_new_2560/boundary/top.vtp"
    Boundary  : "VTK/CHADValid_simple_new_2560/boundary/bottom.vtp"
    Boundary  : "VTK/CHADValid_simple_new_2560/boundary/left.vtp"
    Boundary  : "VTK/CHADValid_simple_new_2560/boundary/right.vtp"
Wrote in 0.93 s, 542256 kB
Time: 129
    volScalar    : DT T gradTx gradTy gradTz
    volVector    : flux
    Internal  : "VTK/CHADValid_simple_new_2580/internal.vtu"
    Boundary  : "VTK/CHADValid_simple_new_2580/boundary/top.vtp"
    Boundary  : "VTK/CHADValid_simple_new_2580/boundary/bottom.vtp"
    Boundary  : "VTK/CHADValid_simple_new_2580/boundary/left.vtp"
    Boundary  : "VTK/CHADValid_simple_new_2580/boundary/right.vtp"
Wrote in 0.93 s, 542256 kB
Time: 130
    volScalar    : DT T gradTx gradTy gradTz
    volVector    : flux
    Internal  : "VTK/CHADValid_simple_new_2600/internal.vtu"
    Boundary  : "VTK/CHADValid_simple_new_2600/boundary/top.vtp"
    Boundary  : "VTK/CHADValid_simple_new_2600/boundary/bottom.vtp"
    Boundary  : "VTK/CHADValid_simple_new_2600/boundary/left.vtp"
    Boundary  : "VTK/CHADValid_simple_new_2600/boundary/right.vtp"
Wrote in 0.93 s, 542256 kB
Time: 131
    volScalar    : DT T gradTx gradTy gradTz
    volVector    : flux
    Internal  : "VTK/CHADValid_simple_new_2620/internal.vtu"
    Boundary  : "VTK/CHADValid_simple_new_2620/boundary/top.vtp"
    Boundary  : "VTK/CHADValid_simple_new_2620/boundary/bottom.vtp"
    Boundary  : "VTK/CHADValid_simple_new_2620/boundary/left.vtp"
    Boundary  : "VTK/CHADValid_simple_new_2620/boundary/right.vtp"
Wrote in 0.94 s, 542256 kB
Time: 132
    volScalar    : DT T gradTx gradTy gradTz
    volVector    : flux
    Internal  : "VTK/CHADValid_simple_new_2640/internal.vtu"
    Boundary  : "VTK/CHADValid_simple_new_2640/boundary/top.vtp"
    Boundary  : "VTK/CHADValid_simple_new_2640/boundary/bottom.vtp"
    Boundary  : "VTK/CHADValid_simple_new_2640/boundary/left.vtp"
    Boundary  : "VTK/CHADValid_simple_new_2640/boundary/right.vtp"
Wrote in 0.94 s, 542256 kB
Time: 133
    volScalar    : DT T gradTx gradTy gradTz
    volVector    : flux
    Internal  : "VTK/CHADValid_simple_new_2660/internal.vtu"
    Boundary  : "VTK/CHADValid_simple_new_2660/boundary/top.vtp"
    Boundary  : "VTK/CHADValid_simple_new_2660/boundary/bottom.vtp"
    Boundary  : "VTK/CHADValid_simple_new_2660/boundary/left.vtp"
    Boundary  : "VTK/CHADValid_simple_new_2660/boundary/right.vtp"
Wrote in 0.93 s, 542256 kB
Time: 134
    volScalar    : DT T gradTx gradTy gradTz
    volVector    : flux
    Internal  : "VTK/CHADValid_simple_new_2680/internal.vtu"
    Boundary  : "VTK/CHADValid_simple_new_2680/boundary/top.vtp"
    Boundary  : "VTK/CHADValid_simple_new_2680/boundary/bottom.vtp"
    Boundary  : "VTK/CHADValid_simple_new_2680/boundary/left.vtp"
    Boundary  : "VTK/CHADValid_simple_new_2680/boundary/right.vtp"
Wrote in 0.96 s, 542256 kB
Time: 135
    volScalar    : DT T gradTx gradTy gradTz
    volVector    : flux
    Internal  : "VTK/CHADValid_simple_new_2700/internal.vtu"
    Boundary  : "VTK/CHADValid_simple_new_2700/boundary/top.vtp"
    Boundary  : "VTK/CHADValid_simple_new_2700/boundary/bottom.vtp"
    Boundary  : "VTK/CHADValid_simple_new_2700/boundary/left.vtp"
    Boundary  : "VTK/CHADValid_simple_new_2700/boundary/right.vtp"
Wrote in 0.96 s, 542256 kB
Time: 136
    volScalar    : DT T gradTx gradTy gradTz
    volVector    : flux
    Internal  : "VTK/CHADValid_simple_new_2720/internal.vtu"
    Boundary  : "VTK/CHADValid_simple_new_2720/boundary/top.vtp"
    Boundary  : "VTK/CHADValid_simple_new_2720/boundary/bottom.vtp"
    Boundary  : "VTK/CHADValid_simple_new_2720/boundary/left.vtp"
    Boundary  : "VTK/CHADValid_simple_new_2720/boundary/right.vtp"
Wrote in 0.95 s, 542256 kB
Time: 137
    volScalar    : DT T gradTx gradTy gradTz
    volVector    : flux
    Internal  : "VTK/CHADValid_simple_new_2740/internal.vtu"
    Boundary  : "VTK/CHADValid_simple_new_2740/boundary/top.vtp"
    Boundary  : "VTK/CHADValid_simple_new_2740/boundary/bottom.vtp"
    Boundary  : "VTK/CHADValid_simple_new_2740/boundary/left.vtp"
    Boundary  : "VTK/CHADValid_simple_new_2740/boundary/right.vtp"
Wrote in 0.93 s, 542256 kB
Time: 138
    volScalar    : DT T gradTx gradTy gradTz
    volVector    : flux
    Internal  : "VTK/CHADValid_simple_new_2760/internal.vtu"
    Boundary  : "VTK/CHADValid_simple_new_2760/boundary/top.vtp"
    Boundary  : "VTK/CHADValid_simple_new_2760/boundary/bottom.vtp"
    Boundary  : "VTK/CHADValid_simple_new_2760/boundary/left.vtp"
    Boundary  : "VTK/CHADValid_simple_new_2760/boundary/right.vtp"
Wrote in 0.94 s, 542256 kB
Time: 139
    volScalar    : DT T gradTx gradTy gradTz
    volVector    : flux
    Internal  : "VTK/CHADValid_simple_new_2780/internal.vtu"
    Boundary  : "VTK/CHADValid_simple_new_2780/boundary/top.vtp"
    Boundary  : "VTK/CHADValid_simple_new_2780/boundary/bottom.vtp"
    Boundary  : "VTK/CHADValid_simple_new_2780/boundary/left.vtp"
    Boundary  : "VTK/CHADValid_simple_new_2780/boundary/right.vtp"
Wrote in 0.93 s, 542256 kB
Time: 140
    volScalar    : DT T gradTx gradTy gradTz
    volVector    : flux
    Internal  : "VTK/CHADValid_simple_new_2800/internal.vtu"
    Boundary  : "VTK/CHADValid_simple_new_2800/boundary/top.vtp"
    Boundary  : "VTK/CHADValid_simple_new_2800/boundary/bottom.vtp"
    Boundary  : "VTK/CHADValid_simple_new_2800/boundary/left.vtp"
    Boundary  : "VTK/CHADValid_simple_new_2800/boundary/right.vtp"
Wrote in 0.94 s, 542256 kB
Time: 141
    volScalar    : DT T gradTx gradTy gradTz
    volVector    : flux
    Internal  : "VTK/CHADValid_simple_new_2820/internal.vtu"
    Boundary  : "VTK/CHADValid_simple_new_2820/boundary/top.vtp"
    Boundary  : "VTK/CHADValid_simple_new_2820/boundary/bottom.vtp"
    Boundary  : "VTK/CHADValid_simple_new_2820/boundary/left.vtp"
    Boundary  : "VTK/CHADValid_simple_new_2820/boundary/right.vtp"
Wrote in 0.93 s, 542256 kB
Time: 142
    volScalar    : DT T gradTx gradTy gradTz
    volVector    : flux
    Internal  : "VTK/CHADValid_simple_new_2840/internal.vtu"
    Boundary  : "VTK/CHADValid_simple_new_2840/boundary/top.vtp"
    Boundary  : "VTK/CHADValid_simple_new_2840/boundary/bottom.vtp"
    Boundary  : "VTK/CHADValid_simple_new_2840/boundary/left.vtp"
    Boundary  : "VTK/CHADValid_simple_new_2840/boundary/right.vtp"
Wrote in 0.95 s, 542256 kB
Time: 143
    volScalar    : DT T gradTx gradTy gradTz
    volVector    : flux
    Internal  : "VTK/CHADValid_simple_new_2860/internal.vtu"
    Boundary  : "VTK/CHADValid_simple_new_2860/boundary/top.vtp"
    Boundary  : "VTK/CHADValid_simple_new_2860/boundary/bottom.vtp"
    Boundary  : "VTK/CHADValid_simple_new_2860/boundary/left.vtp"
    Boundary  : "VTK/CHADValid_simple_new_2860/boundary/right.vtp"
Wrote in 0.93 s, 542256 kB
Time: 144
    volScalar    : DT T gradTx gradTy gradTz
    volVector    : flux
    Internal  : "VTK/CHADValid_simple_new_2880/internal.vtu"
    Boundary  : "VTK/CHADValid_simple_new_2880/boundary/top.vtp"
    Boundary  : "VTK/CHADValid_simple_new_2880/boundary/bottom.vtp"
    Boundary  : "VTK/CHADValid_simple_new_2880/boundary/left.vtp"
    Boundary  : "VTK/CHADValid_simple_new_2880/boundary/right.vtp"
Wrote in 0.94 s, 542256 kB
Time: 145
    volScalar    : DT T gradTx gradTy gradTz
    volVector    : flux
    Internal  : "VTK/CHADValid_simple_new_2900/internal.vtu"
    Boundary  : "VTK/CHADValid_simple_new_2900/boundary/top.vtp"
    Boundary  : "VTK/CHADValid_simple_new_2900/boundary/bottom.vtp"
    Boundary  : "VTK/CHADValid_simple_new_2900/boundary/left.vtp"
    Boundary  : "VTK/CHADValid_simple_new_2900/boundary/right.vtp"
Wrote in 0.93 s, 542256 kB
Time: 146
    volScalar    : DT T gradTx gradTy gradTz
    volVector    : flux
    Internal  : "VTK/CHADValid_simple_new_2920/internal.vtu"
    Boundary  : "VTK/CHADValid_simple_new_2920/boundary/top.vtp"
    Boundary  : "VTK/CHADValid_simple_new_2920/boundary/bottom.vtp"
    Boundary  : "VTK/CHADValid_simple_new_2920/boundary/left.vtp"
    Boundary  : "VTK/CHADValid_simple_new_2920/boundary/right.vtp"
Wrote in 0.94 s, 542256 kB
Time: 147
    volScalar    : DT T gradTx gradTy gradTz
    volVector    : flux
    Internal  : "VTK/CHADValid_simple_new_2940/internal.vtu"
    Boundary  : "VTK/CHADValid_simple_new_2940/boundary/top.vtp"
    Boundary  : "VTK/CHADValid_simple_new_2940/boundary/bottom.vtp"
    Boundary  : "VTK/CHADValid_simple_new_2940/boundary/left.vtp"
    Boundary  : "VTK/CHADValid_simple_new_2940/boundary/right.vtp"
Wrote in 0.94 s, 542256 kB
Time: 148
    volScalar    : DT T gradTx gradTy gradTz
    volVector    : flux
    Internal  : "VTK/CHADValid_simple_new_2960/internal.vtu"
    Boundary  : "VTK/CHADValid_simple_new_2960/boundary/top.vtp"
    Boundary  : "VTK/CHADValid_simple_new_2960/boundary/bottom.vtp"
    Boundary  : "VTK/CHADValid_simple_new_2960/boundary/left.vtp"
    Boundary  : "VTK/CHADValid_simple_new_2960/boundary/right.vtp"
Wrote in 0.95 s, 542256 kB
Time: 149
    volScalar    : DT T gradTx gradTy gradTz
    volVector    : flux
    Internal  : "VTK/CHADValid_simple_new_2980/internal.vtu"
    Boundary  : "VTK/CHADValid_simple_new_2980/boundary/top.vtp"
    Boundary  : "VTK/CHADValid_simple_new_2980/boundary/bottom.vtp"
    Boundary  : "VTK/CHADValid_simple_new_2980/boundary/left.vtp"
    Boundary  : "VTK/CHADValid_simple_new_2980/boundary/right.vtp"
Wrote in 0.93 s, 542256 kB
Time: 150
    volScalar    : DT T gradTx gradTy gradTz
    volVector    : flux
    Internal  : "VTK/CHADValid_simple_new_3000/internal.vtu"
    Boundary  : "VTK/CHADValid_simple_new_3000/boundary/top.vtp"
    Boundary  : "VTK/CHADValid_simple_new_3000/boundary/bottom.vtp"
    Boundary  : "VTK/CHADValid_simple_new_3000/boundary/left.vtp"
    Boundary  : "VTK/CHADValid_simple_new_3000/boundary/right.vtp"
Wrote in 0.94 s, 542256 kB
Time: 151
    volScalar    : DT T gradTx gradTy gradTz
    volVector    : flux
    Internal  : "VTK/CHADValid_simple_new_3020/internal.vtu"
    Boundary  : "VTK/CHADValid_simple_new_3020/boundary/top.vtp"
    Boundary  : "VTK/CHADValid_simple_new_3020/boundary/bottom.vtp"
    Boundary  : "VTK/CHADValid_simple_new_3020/boundary/left.vtp"
    Boundary  : "VTK/CHADValid_simple_new_3020/boundary/right.vtp"
Wrote in 0.94 s, 542256 kB
Time: 152
    volScalar    : DT T gradTx gradTy gradTz
    volVector    : flux
    Internal  : "VTK/CHADValid_simple_new_3040/internal.vtu"
    Boundary  : "VTK/CHADValid_simple_new_3040/boundary/top.vtp"
    Boundary  : "VTK/CHADValid_simple_new_3040/boundary/bottom.vtp"
    Boundary  : "VTK/CHADValid_simple_new_3040/boundary/left.vtp"
    Boundary  : "VTK/CHADValid_simple_new_3040/boundary/right.vtp"
Wrote in 0.97 s, 542256 kB
Time: 153
    volScalar    : DT T gradTx gradTy gradTz
    volVector    : flux
    Internal  : "VTK/CHADValid_simple_new_3060/internal.vtu"
    Boundary  : "VTK/CHADValid_simple_new_3060/boundary/top.vtp"
    Boundary  : "VTK/CHADValid_simple_new_3060/boundary/bottom.vtp"
    Boundary  : "VTK/CHADValid_simple_new_3060/boundary/left.vtp"
    Boundary  : "VTK/CHADValid_simple_new_3060/boundary/right.vtp"
Wrote in 0.95 s, 542256 kB
Time: 154
    volScalar    : DT T gradTx gradTy gradTz
    volVector    : flux
    Internal  : "VTK/CHADValid_simple_new_3080/internal.vtu"
    Boundary  : "VTK/CHADValid_simple_new_3080/boundary/top.vtp"
    Boundary  : "VTK/CHADValid_simple_new_3080/boundary/bottom.vtp"
    Boundary  : "VTK/CHADValid_simple_new_3080/boundary/left.vtp"
    Boundary  : "VTK/CHADValid_simple_new_3080/boundary/right.vtp"
Wrote in 0.94 s, 542256 kB
Time: 155
    volScalar    : DT T gradTx gradTy gradTz
    volVector    : flux
    Internal  : "VTK/CHADValid_simple_new_3100/internal.vtu"
    Boundary  : "VTK/CHADValid_simple_new_3100/boundary/top.vtp"
    Boundary  : "VTK/CHADValid_simple_new_3100/boundary/bottom.vtp"
    Boundary  : "VTK/CHADValid_simple_new_3100/boundary/left.vtp"
    Boundary  : "VTK/CHADValid_simple_new_3100/boundary/right.vtp"
Wrote in 0.94 s, 542256 kB
Time: 156
    volScalar    : DT T gradTx gradTy gradTz
    volVector    : flux
    Internal  : "VTK/CHADValid_simple_new_3120/internal.vtu"
    Boundary  : "VTK/CHADValid_simple_new_3120/boundary/top.vtp"
    Boundary  : "VTK/CHADValid_simple_new_3120/boundary/bottom.vtp"
    Boundary  : "VTK/CHADValid_simple_new_3120/boundary/left.vtp"
    Boundary  : "VTK/CHADValid_simple_new_3120/boundary/right.vtp"
Wrote in 0.94 s, 542256 kB
Time: 157
    volScalar    : DT T gradTx gradTy gradTz
    volVector    : flux
    Internal  : "VTK/CHADValid_simple_new_3140/internal.vtu"
    Boundary  : "VTK/CHADValid_simple_new_3140/boundary/top.vtp"
    Boundary  : "VTK/CHADValid_simple_new_3140/boundary/bottom.vtp"
    Boundary  : "VTK/CHADValid_simple_new_3140/boundary/left.vtp"
    Boundary  : "VTK/CHADValid_simple_new_3140/boundary/right.vtp"
Wrote in 0.94 s, 542256 kB
Time: 158
    volScalar    : DT T gradTx gradTy gradTz
    volVector    : flux
    Internal  : "VTK/CHADValid_simple_new_3160/internal.vtu"
    Boundary  : "VTK/CHADValid_simple_new_3160/boundary/top.vtp"
    Boundary  : "VTK/CHADValid_simple_new_3160/boundary/bottom.vtp"
    Boundary  : "VTK/CHADValid_simple_new_3160/boundary/left.vtp"
    Boundary  : "VTK/CHADValid_simple_new_3160/boundary/right.vtp"
Wrote in 0.94 s, 542256 kB
Time: 159
    volScalar    : DT T gradTx gradTy gradTz
    volVector    : flux
    Internal  : "VTK/CHADValid_simple_new_3180/internal.vtu"
    Boundary  : "VTK/CHADValid_simple_new_3180/boundary/top.vtp"
    Boundary  : "VTK/CHADValid_simple_new_3180/boundary/bottom.vtp"
    Boundary  : "VTK/CHADValid_simple_new_3180/boundary/left.vtp"
    Boundary  : "VTK/CHADValid_simple_new_3180/boundary/right.vtp"
Wrote in 0.94 s, 542256 kB
Time: 160
    volScalar    : DT T gradTx gradTy gradTz
    volVector    : flux
    Internal  : "VTK/CHADValid_simple_new_3200/internal.vtu"
    Boundary  : "VTK/CHADValid_simple_new_3200/boundary/top.vtp"
    Boundary  : "VTK/CHADValid_simple_new_3200/boundary/bottom.vtp"
    Boundary  : "VTK/CHADValid_simple_new_3200/boundary/left.vtp"
    Boundary  : "VTK/CHADValid_simple_new_3200/boundary/right.vtp"
Wrote in 0.94 s, 542256 kB
Time: 161
    volScalar    : DT T gradTx gradTy gradTz
    volVector    : flux
    Internal  : "VTK/CHADValid_simple_new_3220/internal.vtu"
    Boundary  : "VTK/CHADValid_simple_new_3220/boundary/top.vtp"
    Boundary  : "VTK/CHADValid_simple_new_3220/boundary/bottom.vtp"
    Boundary  : "VTK/CHADValid_simple_new_3220/boundary/left.vtp"
    Boundary  : "VTK/CHADValid_simple_new_3220/boundary/right.vtp"
Wrote in 0.94 s, 542256 kB
Time: 162
    volScalar    : DT T gradTx gradTy gradTz
    volVector    : flux
    Internal  : "VTK/CHADValid_simple_new_3240/internal.vtu"
    Boundary  : "VTK/CHADValid_simple_new_3240/boundary/top.vtp"
    Boundary  : "VTK/CHADValid_simple_new_3240/boundary/bottom.vtp"
    Boundary  : "VTK/CHADValid_simple_new_3240/boundary/left.vtp"
    Boundary  : "VTK/CHADValid_simple_new_3240/boundary/right.vtp"
Wrote in 0.94 s, 542256 kB
Time: 163
    volScalar    : DT T gradTx gradTy gradTz
    volVector    : flux
    Internal  : "VTK/CHADValid_simple_new_3260/internal.vtu"
    Boundary  : "VTK/CHADValid_simple_new_3260/boundary/top.vtp"
    Boundary  : "VTK/CHADValid_simple_new_3260/boundary/bottom.vtp"
    Boundary  : "VTK/CHADValid_simple_new_3260/boundary/left.vtp"
    Boundary  : "VTK/CHADValid_simple_new_3260/boundary/right.vtp"
Wrote in 0.93 s, 542256 kB
Time: 164
    volScalar    : DT T gradTx gradTy gradTz
    volVector    : flux
    Internal  : "VTK/CHADValid_simple_new_3280/internal.vtu"
    Boundary  : "VTK/CHADValid_simple_new_3280/boundary/top.vtp"
    Boundary  : "VTK/CHADValid_simple_new_3280/boundary/bottom.vtp"
    Boundary  : "VTK/CHADValid_simple_new_3280/boundary/left.vtp"
    Boundary  : "VTK/CHADValid_simple_new_3280/boundary/right.vtp"
Wrote in 0.95 s, 542256 kB
Time: 165
    volScalar    : DT T gradTx gradTy gradTz
    volVector    : flux
    Internal  : "VTK/CHADValid_simple_new_3300/internal.vtu"
    Boundary  : "VTK/CHADValid_simple_new_3300/boundary/top.vtp"
    Boundary  : "VTK/CHADValid_simple_new_3300/boundary/bottom.vtp"
    Boundary  : "VTK/CHADValid_simple_new_3300/boundary/left.vtp"
    Boundary  : "VTK/CHADValid_simple_new_3300/boundary/right.vtp"
Wrote in 0.93 s, 542256 kB
Time: 166
    volScalar    : DT T gradTx gradTy gradTz
    volVector    : flux
    Internal  : "VTK/CHADValid_simple_new_3320/internal.vtu"
    Boundary  : "VTK/CHADValid_simple_new_3320/boundary/top.vtp"
    Boundary  : "VTK/CHADValid_simple_new_3320/boundary/bottom.vtp"
    Boundary  : "VTK/CHADValid_simple_new_3320/boundary/left.vtp"
    Boundary  : "VTK/CHADValid_simple_new_3320/boundary/right.vtp"
Wrote in 0.94 s, 542256 kB
Time: 167
    volScalar    : DT T gradTx gradTy gradTz
    volVector    : flux
    Internal  : "VTK/CHADValid_simple_new_3340/internal.vtu"
    Boundary  : "VTK/CHADValid_simple_new_3340/boundary/top.vtp"
    Boundary  : "VTK/CHADValid_simple_new_3340/boundary/bottom.vtp"
    Boundary  : "VTK/CHADValid_simple_new_3340/boundary/left.vtp"
    Boundary  : "VTK/CHADValid_simple_new_3340/boundary/right.vtp"
Wrote in 0.94 s, 542256 kB
Time: 168
    volScalar    : DT T gradTx gradTy gradTz
    volVector    : flux
    Internal  : "VTK/CHADValid_simple_new_3360/internal.vtu"
    Boundary  : "VTK/CHADValid_simple_new_3360/boundary/top.vtp"
    Boundary  : "VTK/CHADValid_simple_new_3360/boundary/bottom.vtp"
    Boundary  : "VTK/CHADValid_simple_new_3360/boundary/left.vtp"
    Boundary  : "VTK/CHADValid_simple_new_3360/boundary/right.vtp"
Wrote in 0.95 s, 542256 kB
Time: 169
    volScalar    : DT T gradTx gradTy gradTz
    volVector    : flux
    Internal  : "VTK/CHADValid_simple_new_3380/internal.vtu"
    Boundary  : "VTK/CHADValid_simple_new_3380/boundary/top.vtp"
    Boundary  : "VTK/CHADValid_simple_new_3380/boundary/bottom.vtp"
    Boundary  : "VTK/CHADValid_simple_new_3380/boundary/left.vtp"
    Boundary  : "VTK/CHADValid_simple_new_3380/boundary/right.vtp"
Wrote in 0.93 s, 542256 kB
Time: 170
    volScalar    : DT T gradTx gradTy gradTz
    volVector    : flux
    Internal  : "VTK/CHADValid_simple_new_3400/internal.vtu"
    Boundary  : "VTK/CHADValid_simple_new_3400/boundary/top.vtp"
    Boundary  : "VTK/CHADValid_simple_new_3400/boundary/bottom.vtp"
    Boundary  : "VTK/CHADValid_simple_new_3400/boundary/left.vtp"
    Boundary  : "VTK/CHADValid_simple_new_3400/boundary/right.vtp"
Wrote in 0.94 s, 542256 kB
Time: 171
    volScalar    : DT T gradTx gradTy gradTz
    volVector    : flux
    Internal  : "VTK/CHADValid_simple_new_3420/internal.vtu"
    Boundary  : "VTK/CHADValid_simple_new_3420/boundary/top.vtp"
    Boundary  : "VTK/CHADValid_simple_new_3420/boundary/bottom.vtp"
    Boundary  : "VTK/CHADValid_simple_new_3420/boundary/left.vtp"
    Boundary  : "VTK/CHADValid_simple_new_3420/boundary/right.vtp"
Wrote in 0.93 s, 542256 kB
Time: 172
    volScalar    : DT T gradTx gradTy gradTz
    volVector    : flux
    Internal  : "VTK/CHADValid_simple_new_3440/internal.vtu"
    Boundary  : "VTK/CHADValid_simple_new_3440/boundary/top.vtp"
    Boundary  : "VTK/CHADValid_simple_new_3440/boundary/bottom.vtp"
    Boundary  : "VTK/CHADValid_simple_new_3440/boundary/left.vtp"
    Boundary  : "VTK/CHADValid_simple_new_3440/boundary/right.vtp"
Wrote in 0.94 s, 542256 kB
Time: 173
    volScalar    : DT T gradTx gradTy gradTz
    volVector    : flux
    Internal  : "VTK/CHADValid_simple_new_3460/internal.vtu"
    Boundary  : "VTK/CHADValid_simple_new_3460/boundary/top.vtp"
    Boundary  : "VTK/CHADValid_simple_new_3460/boundary/bottom.vtp"
    Boundary  : "VTK/CHADValid_simple_new_3460/boundary/left.vtp"
    Boundary  : "VTK/CHADValid_simple_new_3460/boundary/right.vtp"
Wrote in 0.95 s, 542256 kB
Time: 174
    volScalar    : DT T gradTx gradTy gradTz
    volVector    : flux
    Internal  : "VTK/CHADValid_simple_new_3480/internal.vtu"
    Boundary  : "VTK/CHADValid_simple_new_3480/boundary/top.vtp"
    Boundary  : "VTK/CHADValid_simple_new_3480/boundary/bottom.vtp"
    Boundary  : "VTK/CHADValid_simple_new_3480/boundary/left.vtp"
    Boundary  : "VTK/CHADValid_simple_new_3480/boundary/right.vtp"
Wrote in 0.94 s, 542256 kB
Time: 175
    volScalar    : DT T gradTx gradTy gradTz
    volVector    : flux
    Internal  : "VTK/CHADValid_simple_new_3500/internal.vtu"
    Boundary  : "VTK/CHADValid_simple_new_3500/boundary/top.vtp"
    Boundary  : "VTK/CHADValid_simple_new_3500/boundary/bottom.vtp"
    Boundary  : "VTK/CHADValid_simple_new_3500/boundary/left.vtp"
    Boundary  : "VTK/CHADValid_simple_new_3500/boundary/right.vtp"
Wrote in 0.94 s, 542256 kB
Time: 176
    volScalar    : DT T gradTx gradTy gradTz
    volVector    : flux
    Internal  : "VTK/CHADValid_simple_new_3520/internal.vtu"
    Boundary  : "VTK/CHADValid_simple_new_3520/boundary/top.vtp"
    Boundary  : "VTK/CHADValid_simple_new_3520/boundary/bottom.vtp"
    Boundary  : "VTK/CHADValid_simple_new_3520/boundary/left.vtp"
    Boundary  : "VTK/CHADValid_simple_new_3520/boundary/right.vtp"
Wrote in 0.94 s, 542256 kB
Time: 177
    volScalar    : DT T gradTx gradTy gradTz
    volVector    : flux
    Internal  : "VTK/CHADValid_simple_new_3540/internal.vtu"
    Boundary  : "VTK/CHADValid_simple_new_3540/boundary/top.vtp"
    Boundary  : "VTK/CHADValid_simple_new_3540/boundary/bottom.vtp"
    Boundary  : "VTK/CHADValid_simple_new_3540/boundary/left.vtp"
    Boundary  : "VTK/CHADValid_simple_new_3540/boundary/right.vtp"
Wrote in 0.95 s, 542256 kB
Time: 178
    volScalar    : DT T gradTx gradTy gradTz
    volVector    : flux
    Internal  : "VTK/CHADValid_simple_new_3560/internal.vtu"
    Boundary  : "VTK/CHADValid_simple_new_3560/boundary/top.vtp"
    Boundary  : "VTK/CHADValid_simple_new_3560/boundary/bottom.vtp"
    Boundary  : "VTK/CHADValid_simple_new_3560/boundary/left.vtp"
    Boundary  : "VTK/CHADValid_simple_new_3560/boundary/right.vtp"
Wrote in 0.94 s, 542256 kB
Time: 179
    volScalar    : DT T gradTx gradTy gradTz
    volVector    : flux
    Internal  : "VTK/CHADValid_simple_new_3580/internal.vtu"
    Boundary  : "VTK/CHADValid_simple_new_3580/boundary/top.vtp"
    Boundary  : "VTK/CHADValid_simple_new_3580/boundary/bottom.vtp"
    Boundary  : "VTK/CHADValid_simple_new_3580/boundary/left.vtp"
    Boundary  : "VTK/CHADValid_simple_new_3580/boundary/right.vtp"
Wrote in 0.94 s, 542256 kB
Time: 180
    volScalar    : DT T gradTx gradTy gradTz
    volVector    : flux
    Internal  : "VTK/CHADValid_simple_new_3600/internal.vtu"
    Boundary  : "VTK/CHADValid_simple_new_3600/boundary/top.vtp"
    Boundary  : "VTK/CHADValid_simple_new_3600/boundary/bottom.vtp"
    Boundary  : "VTK/CHADValid_simple_new_3600/boundary/left.vtp"
    Boundary  : "VTK/CHADValid_simple_new_3600/boundary/right.vtp"
Wrote in 0.94 s, 542256 kB
Time: 181
    volScalar    : DT T gradTx gradTy gradTz
    volVector    : flux
    Internal  : "VTK/CHADValid_simple_new_3620/internal.vtu"
    Boundary  : "VTK/CHADValid_simple_new_3620/boundary/top.vtp"
    Boundary  : "VTK/CHADValid_simple_new_3620/boundary/bottom.vtp"
    Boundary  : "VTK/CHADValid_simple_new_3620/boundary/left.vtp"
    Boundary  : "VTK/CHADValid_simple_new_3620/boundary/right.vtp"
Wrote in 0.94 s, 542256 kB
Time: 182
    volScalar    : DT T gradTx gradTy gradTz
    volVector    : flux
    Internal  : "VTK/CHADValid_simple_new_3640/internal.vtu"
    Boundary  : "VTK/CHADValid_simple_new_3640/boundary/top.vtp"
    Boundary  : "VTK/CHADValid_simple_new_3640/boundary/bottom.vtp"
    Boundary  : "VTK/CHADValid_simple_new_3640/boundary/left.vtp"
    Boundary  : "VTK/CHADValid_simple_new_3640/boundary/right.vtp"
Wrote in 0.94 s, 542256 kB
Time: 183
    volScalar    : DT T gradTx gradTy gradTz
    volVector    : flux
    Internal  : "VTK/CHADValid_simple_new_3660/internal.vtu"
    Boundary  : "VTK/CHADValid_simple_new_3660/boundary/top.vtp"
    Boundary  : "VTK/CHADValid_simple_new_3660/boundary/bottom.vtp"
    Boundary  : "VTK/CHADValid_simple_new_3660/boundary/left.vtp"
    Boundary  : "VTK/CHADValid_simple_new_3660/boundary/right.vtp"
Wrote in 0.94 s, 542256 kB
Time: 184
    volScalar    : DT T gradTx gradTy gradTz
    volVector    : flux
    Internal  : "VTK/CHADValid_simple_new_3680/internal.vtu"
    Boundary  : "VTK/CHADValid_simple_new_3680/boundary/top.vtp"
    Boundary  : "VTK/CHADValid_simple_new_3680/boundary/bottom.vtp"
    Boundary  : "VTK/CHADValid_simple_new_3680/boundary/left.vtp"
    Boundary  : "VTK/CHADValid_simple_new_3680/boundary/right.vtp"
Wrote in 0.93 s, 542256 kB
Time: 185
    volScalar    : DT T gradTx gradTy gradTz
    volVector    : flux
    Internal  : "VTK/CHADValid_simple_new_3700/internal.vtu"
    Boundary  : "VTK/CHADValid_simple_new_3700/boundary/top.vtp"
    Boundary  : "VTK/CHADValid_simple_new_3700/boundary/bottom.vtp"
    Boundary  : "VTK/CHADValid_simple_new_3700/boundary/left.vtp"
    Boundary  : "VTK/CHADValid_simple_new_3700/boundary/right.vtp"
Wrote in 0.94 s, 542256 kB
Time: 186
    volScalar    : DT T gradTx gradTy gradTz
    volVector    : flux
    Internal  : "VTK/CHADValid_simple_new_3720/internal.vtu"
    Boundary  : "VTK/CHADValid_simple_new_3720/boundary/top.vtp"
    Boundary  : "VTK/CHADValid_simple_new_3720/boundary/bottom.vtp"
    Boundary  : "VTK/CHADValid_simple_new_3720/boundary/left.vtp"
    Boundary  : "VTK/CHADValid_simple_new_3720/boundary/right.vtp"
Wrote in 0.95 s, 542256 kB
Time: 187
    volScalar    : DT T gradTx gradTy gradTz
    volVector    : flux
    Internal  : "VTK/CHADValid_simple_new_3740/internal.vtu"
    Boundary  : "VTK/CHADValid_simple_new_3740/boundary/top.vtp"
    Boundary  : "VTK/CHADValid_simple_new_3740/boundary/bottom.vtp"
    Boundary  : "VTK/CHADValid_simple_new_3740/boundary/left.vtp"
    Boundary  : "VTK/CHADValid_simple_new_3740/boundary/right.vtp"
Wrote in 0.94 s, 542256 kB
Time: 188
    volScalar    : DT T gradTx gradTy gradTz
    volVector    : flux
    Internal  : "VTK/CHADValid_simple_new_3760/internal.vtu"
    Boundary  : "VTK/CHADValid_simple_new_3760/boundary/top.vtp"
    Boundary  : "VTK/CHADValid_simple_new_3760/boundary/bottom.vtp"
    Boundary  : "VTK/CHADValid_simple_new_3760/boundary/left.vtp"
    Boundary  : "VTK/CHADValid_simple_new_3760/boundary/right.vtp"
Wrote in 0.94 s, 542256 kB
Time: 189
    volScalar    : DT T gradTx gradTy gradTz
    volVector    : flux
    Internal  : "VTK/CHADValid_simple_new_3780/internal.vtu"
    Boundary  : "VTK/CHADValid_simple_new_3780/boundary/top.vtp"
    Boundary  : "VTK/CHADValid_simple_new_3780/boundary/bottom.vtp"
    Boundary  : "VTK/CHADValid_simple_new_3780/boundary/left.vtp"
    Boundary  : "VTK/CHADValid_simple_new_3780/boundary/right.vtp"
Wrote in 0.94 s, 542256 kB
Time: 190
    volScalar    : DT T gradTx gradTy gradTz
    volVector    : flux
    Internal  : "VTK/CHADValid_simple_new_3800/internal.vtu"
    Boundary  : "VTK/CHADValid_simple_new_3800/boundary/top.vtp"
    Boundary  : "VTK/CHADValid_simple_new_3800/boundary/bottom.vtp"
    Boundary  : "VTK/CHADValid_simple_new_3800/boundary/left.vtp"
    Boundary  : "VTK/CHADValid_simple_new_3800/boundary/right.vtp"
Wrote in 0.94 s, 542256 kB
Time: 191
    volScalar    : DT T gradTx gradTy gradTz
    volVector    : flux
    Internal  : "VTK/CHADValid_simple_new_3820/internal.vtu"
    Boundary  : "VTK/CHADValid_simple_new_3820/boundary/top.vtp"
    Boundary  : "VTK/CHADValid_simple_new_3820/boundary/bottom.vtp"
    Boundary  : "VTK/CHADValid_simple_new_3820/boundary/left.vtp"
    Boundary  : "VTK/CHADValid_simple_new_3820/boundary/right.vtp"
Wrote in 0.94 s, 542256 kB
Time: 192
    volScalar    : DT T gradTx gradTy gradTz
    volVector    : flux
    Internal  : "VTK/CHADValid_simple_new_3840/internal.vtu"
    Boundary  : "VTK/CHADValid_simple_new_3840/boundary/top.vtp"
    Boundary  : "VTK/CHADValid_simple_new_3840/boundary/bottom.vtp"
    Boundary  : "VTK/CHADValid_simple_new_3840/boundary/left.vtp"
    Boundary  : "VTK/CHADValid_simple_new_3840/boundary/right.vtp"
Wrote in 0.94 s, 542256 kB
Time: 193
    volScalar    : DT T gradTx gradTy gradTz
    volVector    : flux
    Internal  : "VTK/CHADValid_simple_new_3860/internal.vtu"
    Boundary  : "VTK/CHADValid_simple_new_3860/boundary/top.vtp"
    Boundary  : "VTK/CHADValid_simple_new_3860/boundary/bottom.vtp"
    Boundary  : "VTK/CHADValid_simple_new_3860/boundary/left.vtp"
    Boundary  : "VTK/CHADValid_simple_new_3860/boundary/right.vtp"
Wrote in 0.94 s, 542256 kB
Time: 194
    volScalar    : DT T gradTx gradTy gradTz
    volVector    : flux
    Internal  : "VTK/CHADValid_simple_new_3880/internal.vtu"
    Boundary  : "VTK/CHADValid_simple_new_3880/boundary/top.vtp"
    Boundary  : "VTK/CHADValid_simple_new_3880/boundary/bottom.vtp"
    Boundary  : "VTK/CHADValid_simple_new_3880/boundary/left.vtp"
    Boundary  : "VTK/CHADValid_simple_new_3880/boundary/right.vtp"
Wrote in 0.95 s, 542256 kB
Time: 195
    volScalar    : DT T gradTx gradTy gradTz
    volVector    : flux
    Internal  : "VTK/CHADValid_simple_new_3900/internal.vtu"
    Boundary  : "VTK/CHADValid_simple_new_3900/boundary/top.vtp"
    Boundary  : "VTK/CHADValid_simple_new_3900/boundary/bottom.vtp"
    Boundary  : "VTK/CHADValid_simple_new_3900/boundary/left.vtp"
    Boundary  : "VTK/CHADValid_simple_new_3900/boundary/right.vtp"
Wrote in 0.94 s, 542256 kB
Time: 196
    volScalar    : DT T gradTx gradTy gradTz
    volVector    : flux
    Internal  : "VTK/CHADValid_simple_new_3920/internal.vtu"
    Boundary  : "VTK/CHADValid_simple_new_3920/boundary/top.vtp"
    Boundary  : "VTK/CHADValid_simple_new_3920/boundary/bottom.vtp"
    Boundary  : "VTK/CHADValid_simple_new_3920/boundary/left.vtp"
    Boundary  : "VTK/CHADValid_simple_new_3920/boundary/right.vtp"
Wrote in 0.95 s, 542256 kB
Time: 197
    volScalar    : DT T gradTx gradTy gradTz
    volVector    : flux
    Internal  : "VTK/CHADValid_simple_new_3940/internal.vtu"
    Boundary  : "VTK/CHADValid_simple_new_3940/boundary/top.vtp"
    Boundary  : "VTK/CHADValid_simple_new_3940/boundary/bottom.vtp"
    Boundary  : "VTK/CHADValid_simple_new_3940/boundary/left.vtp"
    Boundary  : "VTK/CHADValid_simple_new_3940/boundary/right.vtp"
Wrote in 0.94 s, 542256 kB
Time: 198
    volScalar    : DT T gradTx gradTy gradTz
    volVector    : flux
    Internal  : "VTK/CHADValid_simple_new_3960/internal.vtu"
    Boundary  : "VTK/CHADValid_simple_new_3960/boundary/top.vtp"
    Boundary  : "VTK/CHADValid_simple_new_3960/boundary/bottom.vtp"
    Boundary  : "VTK/CHADValid_simple_new_3960/boundary/left.vtp"
    Boundary  : "VTK/CHADValid_simple_new_3960/boundary/right.vtp"
Wrote in 0.95 s, 542256 kB
Time: 199
    volScalar    : DT T gradTx gradTy gradTz
    volVector    : flux
    Internal  : "VTK/CHADValid_simple_new_3980/internal.vtu"
    Boundary  : "VTK/CHADValid_simple_new_3980/boundary/top.vtp"
    Boundary  : "VTK/CHADValid_simple_new_3980/boundary/bottom.vtp"
    Boundary  : "VTK/CHADValid_simple_new_3980/boundary/left.vtp"
    Boundary  : "VTK/CHADValid_simple_new_3980/boundary/right.vtp"
Wrote in 0.94 s, 542256 kB
Time: 200
    volScalar    : DT T gradTx gradTy gradTz
    volVector    : flux
    Internal  : "VTK/CHADValid_simple_new_4000/internal.vtu"
    Boundary  : "VTK/CHADValid_simple_new_4000/boundary/top.vtp"
    Boundary  : "VTK/CHADValid_simple_new_4000/boundary/bottom.vtp"
    Boundary  : "VTK/CHADValid_simple_new_4000/boundary/left.vtp"
    Boundary  : "VTK/CHADValid_simple_new_4000/boundary/right.vtp"
Wrote in 0.94 s, 542256 kB

End: 184.36 s, 608272 kB (peak)

