/*---------------------------------------------------------------------------*\
| =========                 |                                                 |
| \\      /  F ield         | OpenFOAM: The Open Source CFD Toolbox           |
|  \\    /   O peration     | Version:  2212                                  |
|   \\  /    A nd           | Website:  www.openfoam.com                      |
|    \\/     M anipulation  |                                                 |
\*---------------------------------------------------------------------------*/
Build  : _c9081d5d-20230220 OPENFOAM=2212 patch=230110 version=v2212
Arch   : "LSB;label=64;scalar=64"
Exec   : myTestPimpleFoam
Date   : Feb 19 2024
Time   : 23:19:28
Host   : DESKTOP-E2PB5N9
PID    : 31382
I/O    : uncollated
Case   : /home/noreff/works/OpenFOAM-user/v2206/Projects/tests/myPimpleTest
nProcs : 1
trapFpe: Floating point exception trapping enabled (FOAM_SIGFPE).
fileModificationChecking : Monitoring run-time modified files using timeStampMaster (fileModificationSkew 5, maxFileModificationPolls 20)
allowSystemOperations : Allowing user-supplied system call operations

// * * * * * * * * * * * * * * * * * * * * * * * * * * * * * * * * * * * * * //
Create time

Create mesh for time = 0


PIMPLE: Operating solver in PISO mode

Reading field p

Reading field U

Reading/calculating face flux field phi

Selecting incompressible transport model Newtonian
Selecting turbulence model type laminar
Selecting laminar stress model Stokes
s:16{0.1}
V:dimensions      [0 3 0 0 0 0 0];

value           nonuniform List<scalar> 
16
(
0.0006249999999999998
0.0006249999999999998
0.0006249999999999999
0.0006249999999999997
0.0006249999999999998
0.0006250000000000001
0.0006249999999999998
0.0006249999999999998
0.0006249999999999999
0.0006249999999999999
0.0006249999999999999
0.0006249999999999998
0.0006249999999999997
0.0006249999999999998
0.0006249999999999999
0.0006249999999999997
)
;

s*Sh2.mesh().V():
16
(
6.249999999999999e-05
6.249999999999999e-05
6.249999999999999e-05
6.249999999999997e-05
6.249999999999999e-05
6.250000000000001e-05
6.249999999999999e-05
6.249999999999999e-05
6.249999999999999e-05
6.249999999999999e-05
6.249999999999999e-05
6.249999999999999e-05
6.249999999999997e-05
6.249999999999999e-05
6.249999999999999e-05
6.249999999999997e-05
)

No MRF models present

No finite volume options present
Courant Number mean: 0 max: 0
Courant Number mean: 0 max: 0

Starting time loop

Courant Number mean: 0 max: 0
deltaT = 1
Time = 1

PIMPLE: iteration 1
smoothSolver:  Solving for Ux, Initial residual = 0, Final residual = 0, No Iterations 0
smoothSolver:  Solving for Uy, Initial residual = 0, Final residual = 0, No Iterations 0
GAMG:  Solving for p, Initial residual = 0, Final residual = 0, No Iterations 0
time step continuity errors : sum local = 0, global = 0, cumulative = 0

>>>>>>>>>>>>>>>>>>>>>>>>>>>>>>> A*x=b: (no source term)
b:
16
(
0.0006249999999999998
0.0006249999999999998
0.0006249999999999999
0.0006249999999999997
0.0006249999999999998
0.0006250000000000001
0.0006249999999999998
0.0006249999999999998
0.0006249999999999999
0.0006249999999999999
0.0006249999999999999
0.0006249999999999998
0.0006249999999999997
0.0006249999999999998
0.0006249999999999999
0.0006249999999999997
)

diagonalPBiCGStab:  Solving for Sh2, Initial residual = 0.9999999999999988, Final residual = 7.221537067462444e-19, No Iterations 4
ExecutionTime = 0 s  ClockTime = 0 s

Courant Number mean: 0 max: 0
deltaT = 1
Time = 2

PIMPLE: iteration 1
smoothSolver:  Solving for Ux, Initial residual = 0, Final residual = 0, No Iterations 0
smoothSolver:  Solving for Uy, Initial residual = 0, Final residual = 0, No Iterations 0
GAMG:  Solving for p, Initial residual = 0, Final residual = 0, No Iterations 0
time step continuity errors : sum local = 0, global = 0, cumulative = 0

>>>>>>>>>>>>>>>>>>>>>>>>>>>>>>> A*x=b: (no source term)
b:
16
(
0.000625000000005303
0.0006250000000052997
0.0006250000000052998
0.0006250000000053028
0.0006250000036892427
0.0006250000036874898
0.0006250000036874895
0.0006250000036892427
0.0006250025705788433
0.000625002569763367
0.000625002569763367
0.0006250025705788432
0.0006267911193403048
0.0006267908350344829
0.000626790835034483
0.0006267911193403048
)

diagonalPBiCGStab:  Solving for Sh2, Initial residual = 0.249930055554584, Final residual = 1.802204795096474e-19, No Iterations 4
ExecutionTime = 0.02 s  ClockTime = 0 s

Courant Number mean: 0 max: 0
deltaT = 1
Time = 3

PIMPLE: iteration 1
smoothSolver:  Solving for Ux, Initial residual = 0, Final residual = 0, No Iterations 0
smoothSolver:  Solving for Uy, Initial residual = 0, Final residual = 0, No Iterations 0
GAMG:  Solving for p, Initial residual = 0, Final residual = 0, No Iterations 0
time step continuity errors : sum local = 0, global = 0, cumulative = 0

>>>>>>>>>>>>>>>>>>>>>>>>>>>>>>> A*x=b: (no source term)
b:
16
(
0.0006250000000264548
0.0006250000000264384
0.0006250000000264384
0.0006250000000264547
0.000625000014719974
0.0006250000147129943
0.0006250000147129941
0.000625000014719974
0.0006250076933273207
0.0006250076908931297
0.0006250076908931297
0.0006250076933273206
0.0006285745461719395
0.0006285739808097719
0.0006285739808097721
0.0006285745461719395
)

diagonalPBiCGStab:  Solving for Sh2, Initial residual = 0.142753229365493, Final residual = 7.067228989923679e-17, No Iterations 3
ExecutionTime = 0.02 s  ClockTime = 0 s

Courant Number mean: 0 max: 0
deltaT = 1
Time = 4

PIMPLE: iteration 1
smoothSolver:  Solving for Ux, Initial residual = 0, Final residual = 0, No Iterations 0
smoothSolver:  Solving for Uy, Initial residual = 0, Final residual = 0, No Iterations 0
GAMG:  Solving for p, Initial residual = 0, Final residual = 0, No Iterations 0
time step continuity errors : sum local = 0, global = 0, cumulative = 0

>>>>>>>>>>>>>>>>>>>>>>>>>>>>>>> A*x=b: (no source term)
b:
16
(
0.0006250000000791827
0.0006250000000791334
0.0006250000000791334
0.0006250000000791826
0.0006250000367077141
0.0006250000366903478
0.0006250000366903476
0.0006250000367077141
0.0006250153499469449
0.0006250153451029067
0.0006250153451029067
0.0006250153499469447
0.0006303503171979047
0.0006303494739987016
0.0006303494739987017
0.0006303503171979047
)

diagonalPBiCGStab:  Solving for Sh2, Initial residual = 0.09988102574953174, Final residual = 4.936770819552467e-17, No Iterations 3
ExecutionTime = 0.02 s  ClockTime = 0 s

Courant Number mean: 0 max: 0
deltaT = 1
Time = 5

PIMPLE: iteration 1
smoothSolver:  Solving for Ux, Initial residual = 0, Final residual = 0, No Iterations 0
smoothSolver:  Solving for Uy, Initial residual = 0, Final residual = 0, No Iterations 0
GAMG:  Solving for p, Initial residual = 0, Final residual = 0, No Iterations 0
time step continuity errors : sum local = 0, global = 0, cumulative = 0

>>>>>>>>>>>>>>>>>>>>>>>>>>>>>>> A*x=b: (no source term)
b:
16
(
0.0006250000001843368
0.0006250000001842216
0.0006250000001842216
0.0006250000001843367
0.0006250000732315307
0.0006250000731969629
0.0006250000731969627
0.0006250000732315307
0.0006250255222493173
0.0006250255142162728
0.0006250255142162728
0.0006250255222493171
0.0006321184689373218
0.0006321173510904881
0.0006321173510904882
0.0006321184689373218
)

diagonalPBiCGStab:  Solving for Sh2, Initial residual = 0.07679576588995633, Final residual = 3.789570908415679e-17, No Iterations 3
ExecutionTime = 0.02 s  ClockTime = 0 s

Courant Number mean: 0 max: 0
deltaT = 1
Time = 6

PIMPLE: iteration 1
smoothSolver:  Solving for Ux, Initial residual = 0, Final residual = 0, No Iterations 0
smoothSolver:  Solving for Uy, Initial residual = 0, Final residual = 0, No Iterations 0
GAMG:  Solving for p, Initial residual = 0, Final residual = 0, No Iterations 0
time step continuity errors : sum local = 0, global = 0, cumulative = 0

>>>>>>>>>>>>>>>>>>>>>>>>>>>>>>> A*x=b: (no source term)
b:
16
(
0.0006250000003678295
0.0006250000003675994
0.0006250000003675993
0.0006250000003678294
0.0006250001278343054
0.0006250001277740994
0.0006250001277740991
0.0006250001278343054
0.0006250381921554972
0.0006250381801661298
0.0006250381801661298
0.000625038192155497
0.0006338790377263807
0.0006338776483916763
0.0006338776483916764
0.0006338790377263807
)

diagonalPBiCGStab:  Solving for Sh2, Initial residual = 0.06236747787902833, Final residual = 3.072555540647179e-17, No Iterations 3
ExecutionTime = 0.02 s  ClockTime = 0 s

Courant Number mean: 0 max: 0
deltaT = 1
Time = 7

PIMPLE: iteration 1
smoothSolver:  Solving for Ux, Initial residual = 0, Final residual = 0, No Iterations 0
smoothSolver:  Solving for Uy, Initial residual = 0, Final residual = 0, No Iterations 0
GAMG:  Solving for p, Initial residual = 0, Final residual = 0, No Iterations 0
time step continuity errors : sum local = 0, global = 0, cumulative = 0

>>>>>>>>>>>>>>>>>>>>>>>>>>>>>>> A*x=b: (no source term)
b:
16
(
0.0006250000006605771
0.0006250000006601641
0.0006250000006601641
0.000625000000660577
0.0006250002040230031
0.0006250002039271316
0.0006250002039271314
0.0006250002040230031
0.0006250533416953744
0.0006250533249940809
0.0006250533249940809
0.0006250533416953741
0.0006356320597192824
0.0006356304020270791
0.0006356304020270793
0.0006356320597192824
)

diagonalPBiCGStab:  Solving for Sh2, Initial residual = 0.05249554784769191, Final residual = 2.581955851133616e-17, No Iterations 3
ExecutionTime = 0.02 s  ClockTime = 0 s

Courant Number mean: 0 max: 0
deltaT = 1
Time = 8

PIMPLE: iteration 1
smoothSolver:  Solving for Ux, Initial residual = 0, Final residual = 0, No Iterations 0
smoothSolver:  Solving for Uy, Initial residual = 0, Final residual = 0, No Iterations 0
GAMG:  Solving for p, Initial residual = 0, Final residual = 0, No Iterations 0
time step continuity errors : sum local = 0, global = 0, cumulative = 0

>>>>>>>>>>>>>>>>>>>>>>>>>>>>>>> A*x=b: (no source term)
b:
16
(
0.0006250000010984414
0.0006250000010977553
0.0006250000010977553
0.0006250000010984413
0.0006250003052689363
0.0006250003051258128
0.0006250003051258127
0.0006250003052689363
0.0006250709530070459
0.0006250709308498079
0.0006250709308498079
0.0006250709530070456
0.0006373775708891767
0.0006373756479407138
0.0006373756479407139
0.0006373775708891767
)

diagonalPBiCGStab:  Solving for Sh2, Initial residual = 0.04531603349688978, Final residual = 2.225148291971641e-17, No Iterations 3
ExecutionTime = 0.02 s  ClockTime = 0 s

Courant Number mean: 0 max: 0
deltaT = 1
Time = 9

PIMPLE: iteration 1
smoothSolver:  Solving for Ux, Initial residual = 0, Final residual = 0, No Iterations 0
smoothSolver:  Solving for Uy, Initial residual = 0, Final residual = 0, No Iterations 0
GAMG:  Solving for p, Initial residual = 0, Final residual = 0, No Iterations 0
time step continuity errors : sum local = 0, global = 0, cumulative = 0

>>>>>>>>>>>>>>>>>>>>>>>>>>>>>>> A*x=b: (no source term)
b:
16
(
0.0006250000017221718
0.0006250000017210978
0.0006250000017210978
0.0006250000017221717
0.0006250004350080297
0.0006250004348045388
0.0006250004348045388
0.0006250004350080297
0.0006250910083361953
0.0006250909799904531
0.0006250909799904531
0.0006250910083361949
0.000639115607029095
0.0006391134218967318
0.0006391134218967319
0.000639115607029095
)

diagonalPBiCGStab:  Solving for Sh2, Initial residual = 0.03985967536054739, Final residual = 1.95396814803706e-17, No Iterations 3
ExecutionTime = 0.02 s  ClockTime = 0 s

Courant Number mean: 0 max: 0
deltaT = 1
Time = 10

PIMPLE: iteration 1
smoothSolver:  Solving for Ux, Initial residual = 0, Final residual = 0, No Iterations 0
smoothSolver:  Solving for Uy, Initial residual = 0, Final residual = 0, No Iterations 0
GAMG:  Solving for p, Initial residual = 0, Final residual = 0, No Iterations 0
time step continuity errors : sum local = 0, global = 0, cumulative = 0

>>>>>>>>>>>>>>>>>>>>>>>>>>>>>>> A*x=b: (no source term)
b:
16
(
0.0006250000025773474
0.000625000002575743
0.000625000002575743
0.0006250000025773474
0.0006250005966410811
0.0006250005963626108
0.0006250005963626108
0.0006250005966410811
0.0006251134900354769
0.0006251134547800032
0.0006251134547800032
0.0006251134900354767
0.0006408462037528779
0.0006408437594803455
0.0006408437594803456
0.0006408462037528779
)

diagonalPBiCGStab:  Solving for Sh2, Initial residual = 0.03557260696049504, Final residual = 1.740892530239862e-17, No Iterations 3
ExecutionTime = 0.02 s  ClockTime = 0 s

Courant Number mean: 0 max: 0
deltaT = 1
Time = 11

PIMPLE: iteration 1
smoothSolver:  Solving for Ux, Initial residual = 0, Final residual = 0, No Iterations 0
smoothSolver:  Solving for Uy, Initial residual = 0, Final residual = 0, No Iterations 0
GAMG:  Solving for p, Initial residual = 0, Final residual = 0, No Iterations 0
time step continuity errors : sum local = 0, global = 0, cumulative = 0

>>>>>>>>>>>>>>>>>>>>>>>>>>>>>>> A*x=b: (no source term)
b:
16
(
0.0006250000037143204
0.0006250000037120126
0.0006250000037120126
0.0006250000037143205
0.000625000793534023
0.000625000793164493
0.0006250007931644932
0.000625000793534023
0.000625138380563902
0.0006251383376886776
0.0006251383376886776
0.0006251383805639019
0.0006425693964960987
0.0006425666960987477
0.0006425666960987478
0.0006425693964960987
)

diagonalPBiCGStab:  Solving for Sh2, Initial residual = 0.03211535991518568, Final residual = 1.569052480453647e-17, No Iterations 3
ExecutionTime = 0.02 s  ClockTime = 0 s

Courant Number mean: 0 max: 0
deltaT = 1
Time = 12

PIMPLE: iteration 1
smoothSolver:  Solving for Ux, Initial residual = 0, Final residual = 0, No Iterations 0
smoothSolver:  Solving for Uy, Initial residual = 0, Final residual = 0, No Iterations 0
GAMG:  Solving for p, Initial residual = 0, Final residual = 0, No Iterations 0
time step continuity errors : sum local = 0, global = 0, cumulative = 0

>>>>>>>>>>>>>>>>>>>>>>>>>>>>>>> A*x=b: (no source term)
b:
16
(
0.0006250000051881594
0.0006250000051849417
0.0006250000051849416
0.0006250000051881595
0.0006250010290181809
0.0006250010285400731
0.0006250010285400732
0.0006250010290181809
0.0006251656624862304
0.0006251656112923206
0.0006251656112923206
0.0006251656624862303
0.0006442852205169817
0.0006442822669820301
0.0006442822669820301
0.0006442852205169817
)

diagonalPBiCGStab:  Solving for Sh2, Initial residual = 0.02926827728028709, Final residual = 1.427532744445027e-17, No Iterations 3
ExecutionTime = 0.02 s  ClockTime = 0 s

Courant Number mean: 0 max: 0
deltaT = 1
Time = 13

PIMPLE: iteration 1
smoothSolver:  Solving for Ux, Initial residual = 0, Final residual = 0, No Iterations 0
smoothSolver:  Solving for Uy, Initial residual = 0, Final residual = 0, No Iterations 0
GAMG:  Solving for p, Initial residual = 0, Final residual = 0, No Iterations 0
time step continuity errors : sum local = 0, global = 0, cumulative = 0

>>>>>>>>>>>>>>>>>>>>>>>>>>>>>>> A*x=b: (no source term)
b:
16
(
0.0006250000070585925
0.000625000007054223
0.000625000007054223
0.0006250000070585925
0.0006250013063905299
0.0006250013057849175
0.0006250013057849176
0.0006250013063905299
0.0006251953184723624
0.0006251952582717953
0.0006251952582717953
0.0006251953184723622
0.000645993710897315
0.0006459905071840915
0.0006459905071840914
0.000645993710897315
)

diagonalPBiCGStab:  Solving for Sh2, Initial residual = 0.02688294169179565, Final residual = 1.308958125408496e-17, No Iterations 3
ExecutionTime = 0.02 s  ClockTime = 0 s

Courant Number mean: 0 max: 0
deltaT = 1
Time = 14

PIMPLE: iteration 1
smoothSolver:  Solving for Ux, Initial residual = 0, Final residual = 0, No Iterations 0
smoothSolver:  Solving for Uy, Initial residual = 0, Final residual = 0, No Iterations 0
GAMG:  Solving for p, Initial residual = 0, Final residual = 0, No Iterations 0
time step continuity errors : sum local = 0, global = 0, cumulative = 0

>>>>>>>>>>>>>>>>>>>>>>>>>>>>>>> A*x=b: (no source term)
b:
16
(
0.0006250000093899526
0.0006250000093841509
0.0006250000093841509
0.0006250000093899527
0.0006250016289139504
0.0006250016281605268
0.000625001628160527
0.0006250016289139504
0.000625227331296737
0.0006252272614123826
0.0006252272614123826
0.0006252273312967369
0.0006476949025433593
0.000647691451583547
0.000647691451583547
0.0006476949025433593
)

diagonalPBiCGStab:  Solving for Sh2, Initial residual = 0.02485546070017106, Final residual = 1.208165971216339e-17, No Iterations 3
ExecutionTime = 0.02 s  ClockTime = 0 s

Courant Number mean: 0 max: 0
deltaT = 1
Time = 15

PIMPLE: iteration 1
smoothSolver:  Solving for Ux, Initial residual = 0, Final residual = 0, No Iterations 0
smoothSolver:  Solving for Uy, Initial residual = 0, Final residual = 0, No Iterations 0
GAMG:  Solving for p, Initial residual = 0, Final residual = 0, No Iterations 0
time step continuity errors : sum local = 0, global = 0, cumulative = 0

>>>>>>>>>>>>>>>>>>>>>>>>>>>>>>> A*x=b: (no source term)
b:
16
(
0.0006250000122511216
0.0006250000122435667
0.0006250000122435667
0.0006250000122511218
0.0006250019998174812
0.0006250019988945888
0.0006250019988945891
0.0006250019998174812
0.0006252616838377332
0.0006252616036031832
0.0006252616036031832
0.0006252616838377331
0.0006493888301867518
0.0006493851348846279
0.0006493851348846279
0.0006493888301867518
)

diagonalPBiCGStab:  Solving for Sh2, Initial residual = 0.02311093491899675, Final residual = 1.121434361264714e-17, No Iterations 3
ExecutionTime = 0.02 s  ClockTime = 0 s

Courant Number mean: 0 max: 0
deltaT = 1
Time = 16

PIMPLE: iteration 1
smoothSolver:  Solving for Ux, Initial residual = 0, Final residual = 0, No Iterations 0
smoothSolver:  Solving for Uy, Initial residual = 0, Final residual = 0, No Iterations 0
GAMG:  Solving for p, Initial residual = 0, Final residual = 0, No Iterations 0
time step continuity errors : sum local = 0, global = 0, cumulative = 0

>>>>>>>>>>>>>>>>>>>>>>>>>>>>>>> A*x=b: (no source term)
b:
16
(
0.0006250000157154758
0.0006250000157058034
0.0006250000157058033
0.0006250000157154759
0.0006250024222965724
0.0006250024211812305
0.0006250024211812307
0.0006250024222965724
0.0006252983590770722
0.000625298267836522
0.000625298267836522
0.000625298359077072
0.0006510755283854056
0.0006510715916180806
0.0006510715916180805
0.0006510755283854056
)

diagonalPBiCGStab:  Solving for Sh2, Initial residual = 0.02159400381965687, Final residual = 1.046012305427916e-17, No Iterations 3
ExecutionTime = 0.02 s  ClockTime = 0 s

Courant Number mean: 0 max: 0
deltaT = 1
Time = 17

PIMPLE: iteration 1
smoothSolver:  Solving for Ux, Initial residual = 0, Final residual = 0, No Iterations 0
smoothSolver:  Solving for Uy, Initial residual = 0, Final residual = 0, No Iterations 0
GAMG:  Solving for p, Initial residual = 0, Final residual = 0, No Iterations 0
time step continuity errors : sum local = 0, global = 0, cumulative = 0

>>>>>>>>>>>>>>>>>>>>>>>>>>>>>>> A*x=b: (no source term)
b:
16
(
0.0006250000198608312
0.0006250000198486314
0.0006250000198486312
0.0006250000198608314
0.0006250028995133342
0.0006250028981812674
0.0006250028981812676
0.0006250028995133342
0.0006253373400992257
0.0006253372372073573
0.0006253372372073573
0.0006253373400992256
0.0006527550315244035
0.0006527508561420568
0.0006527508561420568
0.0006527550315244035
)

diagonalPBiCGStab:  Solving for Sh2, Initial residual = 0.02026286448064043, Final residual = 9.798225220518858e-18, No Iterations 3
ExecutionTime = 0.02 s  ClockTime = 0 s

Courant Number mean: 0 max: 0
deltaT = 1
Time = 18

PIMPLE: iteration 1
smoothSolver:  Solving for Ux, Initial residual = 0, Final residual = 0, No Iterations 0
smoothSolver:  Solving for Uy, Initial residual = 0, Final residual = 0, No Iterations 0
GAMG:  Solving for p, Initial residual = 0, Final residual = 0, No Iterations 0
time step continuity errors : sum local = 0, global = 0, cumulative = 0

>>>>>>>>>>>>>>>>>>>>>>>>>>>>>>> A*x=b: (no source term)
b:
16
(
0.0006250000247693901
0.0006250000247542049
0.0006250000247542047
0.0006250000247693902
0.0006250034345967872
0.0006250034330224517
0.0006250034330224519
0.0006250034345967872
0.0006253786100908276
0.0006253784949126922
0.0006253784949126922
0.0006253786100908275
0.0006544273738168876
0.000654422962643003
0.000654422962643003
0.0006544273738168876
)

diagonalPBiCGStab:  Solving for Sh2, Initial residual = 0.01908536075923217, Final residual = 9.212670999663132e-18, No Iterations 3
ExecutionTime = 0.02 s  ClockTime = 0 s

Courant Number mean: 0 max: 0
deltaT = 1
Time = 19

PIMPLE: iteration 1
smoothSolver:  Solving for Ux, Initial residual = 0, Final residual = 0, No Iterations 0
smoothSolver:  Solving for Uy, Initial residual = 0, Final residual = 0, No Iterations 0
GAMG:  Solving for p, Initial residual = 0, Final residual = 0, No Iterations 0
time step continuity errors : sum local = 0, global = 0, cumulative = 0

>>>>>>>>>>>>>>>>>>>>>>>>>>>>>>> A*x=b: (no source term)
b:
16
(
0.0006250000305276867
0.0006250000305090082
0.0006250000305090079
0.0006250000305276868
0.0006250040306431079
0.00062500402879972
0.0006250040287997202
0.0006250040306431079
0.0006254221523400854
0.0006254220242509894
0.0006254220242509894
0.0006254221523400853
0.0006560925893049448
0.000656087945136542
0.000656087945136542
0.0006560925893049448
)

diagonalPBiCGStab:  Solving for Sh2, Initial residual = 0.01803635236452365, Final residual = 8.690967617163206e-18, No Iterations 3
ExecutionTime = 0.02 s  ClockTime = 0 s

Courant Number mean: 0 max: 0
deltaT = 1
Time = 20

PIMPLE: iteration 1
smoothSolver:  Solving for Ux, Initial residual = 0, Final residual = 0, No Iterations 0
smoothSolver:  Solving for Uy, Initial residual = 0, Final residual = 0, No Iterations 0
GAMG:  Solving for p, Initial residual = 0, Final residual = 0, No Iterations 0
time step continuity errors : sum local = 0, global = 0, cumulative = 0

>>>>>>>>>>>>>>>>>>>>>>>>>>>>>>> A*x=b: (no source term)
b:
16
(
0.0006250000372265348
0.0006250000372038027
0.0006250000372038021
0.0006250000372265349
0.0006250046907158754
0.0006250046885754369
0.0006250046885754373
0.0006250046907158754
0.0006254679502361998
0.0006254678086215901
0.0006254678086215901
0.0006254679502361999
0.0006577507118604874
0.0006577458374683531
0.0006577458374683531
0.0006577507118604874
)

diagonalPBiCGStab:  Solving for Sh2, Initial residual = 0.01709590042123401, Final residual = 8.223207000861334e-18, No Iterations 3
ExecutionTime = 0.02 s  ClockTime = 0 s

Courant Number mean: 0 max: 0
deltaT = 1
Time = 21

PIMPLE: iteration 1
smoothSolver:  Solving for Ux, Initial residual = 0, Final residual = 0, No Iterations 0
smoothSolver:  Solving for Uy, Initial residual = 0, Final residual = 0, No Iterations 0
GAMG:  Solving for p, Initial residual = 0, Final residual = 0, No Iterations 0
time step continuity errors : sum local = 0, global = 0, cumulative = 0

>>>>>>>>>>>>>>>>>>>>>>>>>>>>>>> A*x=b: (no source term)
b:
16
(
0.0006250000449609752
0.0006250000449335741
0.0006250000449335736
0.0006250000449609753
0.0006250054178463143
0.00062500541537964
0.0006250054153796404
0.0006250054178463143
0.0006255159872687848
0.0006255158315241357
0.0006255158315241357
0.0006255159872687848
0.0006594017751861275
0.0006593966733150439
0.0006593966733150439
0.0006594017751861275
)

diagonalPBiCGStab:  Solving for Sh2, Initial residual = 0.01624798843863703, Final residual = 7.801430201251213e-18, No Iterations 3
ExecutionTime = 0.02 s  ClockTime = 0 s

Courant Number mean: 0 max: 0
deltaT = 1
Time = 22

PIMPLE: iteration 1
smoothSolver:  Solving for Ux, Initial residual = 0, Final residual = 0, No Iterations 0
smoothSolver:  Solving for Uy, Initial residual = 0, Final residual = 0, No Iterations 0
GAMG:  Solving for p, Initial residual = 0, Final residual = 0, No Iterations 0
time step continuity errors : sum local = 0, global = 0, cumulative = 0

>>>>>>>>>>>>>>>>>>>>>>>>>>>>>>> A*x=b: (no source term)
b:
16
(
0.0006250000538302226
0.000625000053797481
0.0006250000537974804
0.0006250000538302227
0.0006250062150335373
0.0006250062122102801
0.0006250062122102804
0.0006250062150335373
0.0006255662470272898
0.0006255660765579921
0.0006255660765579921
0.0006255662470272897
0.0006610458128160496
0.0006610404861850207
0.0006610404861850208
0.0006610458128160496
)

diagonalPBiCGStab:  Solving for Sh2, Initial residual = 0.01547960300549135, Final residual = 7.419170567783831e-18, No Iterations 3
ExecutionTime = 0.02 s  ClockTime = 0 s

Courant Number mean: 0 max: 0
deltaT = 1
Time = 23

PIMPLE: iteration 1
smoothSolver:  Solving for Ux, Initial residual = 0, Final residual = 0, No Iterations 0
smoothSolver:  Solving for Uy, Initial residual = 0, Final residual = 0, No Iterations 0
GAMG:  Solving for p, Initial residual = 0, Final residual = 0, No Iterations 0
time step continuity errors : sum local = 0, global = 0, cumulative = 0

>>>>>>>>>>>>>>>>>>>>>>>>>>>>>>> A*x=b: (no source term)
b:
16
(
0.0006250000639376145
0.0006250000638988022
0.0006250000638988014
0.0006250000639376148
0.0006250070852447854
0.0006250070820334624
0.0006250070820334628
0.0006250070852447854
0.0006256187132004289
0.0006256185274216784
0.0006256185274216784
0.0006256187132004288
0.0006626828581168761
0.0006626773094193533
0.0006626773094193534
0.0006626828581168761
)

diagonalPBiCGStab:  Solving for Sh2, Initial residual = 0.01478006146146355, Final residual = 7.07111965345615e-18, No Iterations 3
ExecutionTime = 0.02 s  ClockTime = 0 s

Courant Number mean: 0 max: 0
deltaT = 1
Time = 24

PIMPLE: iteration 1
smoothSolver:  Solving for Ux, Initial residual = 0, Final residual = 0, No Iterations 0
smoothSolver:  Solving for Uy, Initial residual = 0, Final residual = 0, No Iterations 0
GAMG:  Solving for p, Initial residual = 0, Final residual = 0, No Iterations 0
time step continuity errors : sum local = 0, global = 0, cumulative = 0

>>>>>>>>>>>>>>>>>>>>>>>>>>>>>>> A*x=b: (no source term)
b:
16
(
0.00062500007539056
0.0006250000753448858
0.000625000075344885
0.0006250000753905602
0.0006250080314156676
0.0006250080277836858
0.0006250080277836861
0.0006250080314156676
0.0006256733695756099
0.0006256731679122981
0.0006256731679122981
0.0006256733695756098
0.0006643129442885304
0.0006643071761926344
0.0006643071761926345
0.0006643129442885304
)

diagonalPBiCGStab:  Solving for Sh2, Initial residual = 0.01414051245237761, Final residual = 6.752879029336425e-18, No Iterations 3
ExecutionTime = 0.02 s  ClockTime = 0 s

Courant Number mean: 0 max: 0
deltaT = 1
Time = 25

PIMPLE: iteration 1
smoothSolver:  Solving for Ux, Initial residual = 0, Final residual = 0, No Iterations 0
smoothSolver:  Solving for Uy, Initial residual = 0, Final residual = 0, No Iterations 0
GAMG:  Solving for p, Initial residual = 0, Final residual = 0, No Iterations 0
time step continuity errors : sum local = 0, global = 0, cumulative = 0

>>>>>>>>>>>>>>>>>>>>>>>>>>>>>>> A*x=b: (no source term)
b:
16
(
0.0006250000883004878
0.000625000088247098
0.0006250000882470971
0.000625000088300488
0.0006250090564503974
0.0006250090523640779
0.0006250090523640782
0.0006250090564503974
0.0006257302000383682
0.0006257299819249736
0.0006257299819249736
0.000625730200038368
0.0006659361043650934
0.0006659301195138353
0.0006659301195138354
0.0006659361043650934
)

diagonalPBiCGStab:  Solving for Sh2, Initial residual = 0.01355355963583239, Final residual = 6.460773295243636e-18, No Iterations 3
ExecutionTime = 0.02 s  ClockTime = 0 s

Courant Number mean: 0 max: 0
deltaT = 1
Time = 26

PIMPLE: iteration 1
smoothSolver:  Solving for Ux, Initial residual = 0, Final residual = 0, No Iterations 0
smoothSolver:  Solving for Uy, Initial residual = 0, Final residual = 0, No Iterations 0
GAMG:  Solving for p, Initial residual = 0, Final residual = 0, No Iterations 0
time step continuity errors : sum local = 0, global = 0, cumulative = 0

>>>>>>>>>>>>>>>>>>>>>>>>>>>>>>> A*x=b: (no source term)
b:
16
(
0.0006250001027827966
0.0006250001027207733
0.0006250001027207724
0.0006250001027827968
0.0006250101632220297
0.0006250101586466325
0.0006250101586466329
0.0006250101632220297
0.0006257891885718036
0.000625788953452284
0.000625788953452284
0.0006257891885718035
0.0006675523712156571
0.0006675461722271581
0.0006675461722271582
0.0006675523712156571
)

diagonalPBiCGStab:  Solving for Sh2, Initial residual = 0.01301297450877419, Final residual = 6.19170737726532e-18, No Iterations 3
ExecutionTime = 0.02 s  ClockTime = 0 s

Courant Number mean: 0 max: 0
deltaT = 1
Time = 27

PIMPLE: iteration 1
smoothSolver:  Solving for Ux, Initial residual = 0, Final residual = 0, No Iterations 0
smoothSolver:  Solving for Uy, Initial residual = 0, Final residual = 0, No Iterations 0
GAMG:  Solving for p, Initial residual = 0, Final residual = 0, No Iterations 0
time step continuity errors : sum local = 0, global = 0, cumulative = 0

>>>>>>>>>>>>>>>>>>>>>>>>>>>>>>> A*x=b: (no source term)
b:
16
(
0.0006250001189568046
0.0006250001188851632
0.0006250001188851624
0.0006250001189568048
0.0006250113545726941
0.0006250113494724427
0.0006250113494724431
0.0006250113545726941
0.0006258503192560195
0.0006258500665837058
0.0006258500665837058
0.0006258503192560194
0.0006691617775451733
0.0006691553670128809
0.000669155367012881
0.0006691617775451733
)

diagonalPBiCGStab:  Solving for Sh2, Initial residual = 0.01251347466664389, Final residual = 5.943056339617021e-18, No Iterations 3
ExecutionTime = 0.02 s  ClockTime = 0 s

Courant Number mean: 0 max: 0
deltaT = 1
Time = 28

PIMPLE: iteration 1
smoothSolver:  Solving for Ux, Initial residual = 0, Final residual = 0, No Iterations 0
smoothSolver:  Solving for Uy, Initial residual = 0, Final residual = 0, No Iterations 0
GAMG:  Solving for p, Initial residual = 0, Final residual = 0, No Iterations 0
time step continuity errors : sum local = 0, global = 0, cumulative = 0

>>>>>>>>>>>>>>>>>>>>>>>>>>>>>>> A*x=b: (no source term)
b:
16
(
0.0006250001369456997
0.0006250001368633878
0.000625000136863387
0.0006250001369456999
0.0006250126333138284
0.000625012627651934
0.0006250126276519343
0.0006250126333138284
0.0006259135762675666
0.0006259133055050574
0.0006259133055050574
0.0006259135762675665
0.0006707643558952965
0.0006707577363882011
0.0006707577363882012
0.0006707643558952965
)

diagonalPBiCGStab:  Solving for Sh2, Initial residual = 0.01205055073709194, Final residual = 5.712579384105981e-18, No Iterations 3
ExecutionTime = 0.02 s  ClockTime = 0 s

Courant Number mean: 0 max: 0
deltaT = 1
Time = 29

PIMPLE: iteration 1
smoothSolver:  Solving for Ux, Initial residual = 0, Final residual = 0, No Iterations 0
smoothSolver:  Solving for Uy, Initial residual = 0, Final residual = 0, No Iterations 0
GAMG:  Solving for p, Initial residual = 0, Final residual = 0, No Iterations 0
time step continuity errors : sum local = 0, global = 0, cumulative = 0

>>>>>>>>>>>>>>>>>>>>>>>>>>>>>>> A*x=b: (no source term)
b:
16
(
0.0006250001568764903
0.0006250001567823855
0.0006250001567823846
0.0006250001568764905
0.0006250140022264099
0.0006250139959650939
0.0006250139959650944
0.0006250140022264099
0.0006259789438788888
0.0006259786544979457
0.0006259786544979457
0.0006259789438788887
0.0006723601386452253
0.0006723533127080728
0.000672353312708073
0.0006723601386452253
)

diagonalPBiCGStab:  Solving for Sh2, Initial residual = 0.01162032996298853, Final residual = 5.498352061373353e-18, No Iterations 3
ExecutionTime = 0.02 s  ClockTime = 0 s

Courant Number mean: 0 max: 0
deltaT = 1
Time = 30

PIMPLE: iteration 1
smoothSolver:  Solving for Ux, Initial residual = 0, Final residual = 0, No Iterations 0
smoothSolver:  Solving for Uy, Initial residual = 0, Final residual = 0, No Iterations 0
GAMG:  Solving for p, Initial residual = 0, Final residual = 0, No Iterations 0
time step continuity errors : sum local = 0, global = 0, cumulative = 0

>>>>>>>>>>>>>>>>>>>>>>>>>>>>>>> A*x=b: (no source term)
b:
16
(
0.0006250001788799559
0.000625000178772864
0.0006250001787728632
0.0006250001788799562
0.0006250154640611842
0.0006250154571617029
0.0006250154571617035
0.0006250154640611842
0.0006260464064577721
0.0006260460979392171
0.0006260460979392171
0.000626046406457772
0.0006739491580125361
0.0006739421281660405
0.0006739421281660406
0.0006739491580125361
)

diagonalPBiCGStab:  Solving for Sh2, Initial residual = 0.01121946768877798, Final residual = 5.298712348003355e-18, No Iterations 3
ExecutionTime = 0.02 s  ClockTime = 0 s

Courant Number mean: 0 max: 0
deltaT = 1
Time = 31

PIMPLE: iteration 1
smoothSolver:  Solving for Ux, Initial residual = 0, Final residual = 0, No Iterations 0
smoothSolver:  Solving for Uy, Initial residual = 0, Final residual = 0, No Iterations 0
GAMG:  Solving for p, Initial residual = 0, Final residual = 0, No Iterations 0
time step continuity errors : sum local = 0, global = 0, cumulative = 0

>>>>>>>>>>>>>>>>>>>>>>>>>>>>>>> A*x=b: (no source term)
b:
16
(
0.0006250002030905994
0.0006250002029692534
0.0006250002029692525
0.0006250002030905997
0.0006250170215388943
0.0006250170139615614
0.0006250170139615619
0.0006250170215388943
0.0006261159484667975
0.00062611562030041
0.00062611562030041
0.0006261159484667974
0.0006755314460540154
0.0006755242147950678
0.000675524214795068
0.0006755314460540154
)

diagonalPBiCGStab:  Solving for Sh2, Initial residual = 0.01084506031101757, Final residual = 5.112217389659315e-18, No Iterations 3
ExecutionTime = 0.02 s  ClockTime = 0 s

Courant Number mean: 0 max: 0
deltaT = 1
Time = 32

PIMPLE: iteration 1
smoothSolver:  Solving for Ux, Initial residual = 0, Final residual = 0, No Iterations 0
smoothSolver:  Solving for Uy, Initial residual = 0, Final residual = 0, No Iterations 0
GAMG:  Solving for p, Initial residual = 0, Final residual = 0, No Iterations 0
time step continuity errors : sum local = 0, global = 0, cumulative = 0

>>>>>>>>>>>>>>>>>>>>>>>>>>>>>>> A*x=b: (no source term)
b:
16
(
0.0006250002296465976
0.0006250002295096561
0.0006250002295096552
0.0006250002296465981
0.0006250186773505068
0.0006250186690547159
0.0006250186690547164
0.0006250186773505068
0.0006261875544627967
0.0006261872061472119
0.0006261872061472119
0.0006261875544627966
0.0006771070346664853
0.0006770996044683631
0.0006770996044683632
0.0006771070346664853
)

diagonalPBiCGStab:  Solving for Sh2, Initial residual = 0.01049457489793219, Final residual = 4.93760852743031e-18, No Iterations 3
ExecutionTime = 0.03 s  ClockTime = 0 s

Courant Number mean: 0 max: 0
deltaT = 1
Time = 33

PIMPLE: iteration 1
smoothSolver:  Solving for Ux, Initial residual = 0, Final residual = 0, No Iterations 0
smoothSolver:  Solving for Uy, Initial residual = 0, Final residual = 0, No Iterations 0
GAMG:  Solving for p, Initial residual = 0, Final residual = 0, No Iterations 0
time step continuity errors : sum local = 0, global = 0, cumulative = 0

>>>>>>>>>>>>>>>>>>>>>>>>>>>>>>> A*x=b: (no source term)
b:
16
(
0.0006250002586897555
0.0006250002585357999
0.000625000258535799
0.0006250002586897559
0.0006250204341574375
0.0006250204251016849
0.0006250204251016853
0.0006250204341574375
0.0006262612090963095
0.0006262608401389183
0.0006262608401389183
0.0006262612090963094
0.0006786759555876258
0.0006786683289001987
0.0006786683289001989
0.0006786759555876258
)

diagonalPBiCGStab:  Solving for Sh2, Initial residual = 0.01016579186920268, Final residual = 4.773782814116283e-18, No Iterations 3
ExecutionTime = 0.03 s  ClockTime = 0 s

Courant Number mean: 0 max: 0
deltaT = 1
Time = 34

PIMPLE: iteration 1
smoothSolver:  Solving for Ux, Initial residual = 0, Final residual = 0, No Iterations 0
smoothSolver:  Solving for Uy, Initial residual = 0, Final residual = 0, No Iterations 0
GAMG:  Solving for p, Initial residual = 0, Final residual = 0, No Iterations 0
time step continuity errors : sum local = 0, global = 0, cumulative = 0

>>>>>>>>>>>>>>>>>>>>>>>>>>>>>>> A*x=b: (no source term)
b:
16
(
0.0006250002903654567
0.0006250002901929915
0.0006250002901929906
0.0006250002903654572
0.0006250222945917753
0.0006250222847336811
0.0006250222847336817
0.0006250222945917753
0.0006263368971110465
0.0006263365070278965
0.0006263365070278965
0.0006263368971110464
0.0006802382403967935
0.0006802304196467278
0.0006802304196467279
0.0006802382403967935
)

diagonalPBiCGStab:  Solving for Sh2, Initial residual = 0.009856757993370598, Final residual = 4.619769657564225e-18, No Iterations 3
ExecutionTime = 0.03 s  ClockTime = 0 s

Courant Number mean: 0 max: 0
deltaT = 1
Time = 35

PIMPLE: iteration 1
smoothSolver:  Solving for Ux, Initial residual = 0, Final residual = 0, No Iterations 0
smoothSolver:  Solving for Uy, Initial residual = 0, Final residual = 0, No Iterations 0
GAMG:  Solving for p, Initial residual = 0, Final residual = 0, No Iterations 0
time step continuity errors : sum local = 0, global = 0, cumulative = 0

>>>>>>>>>>>>>>>>>>>>>>>>>>>>>>> A*x=b: (no source term)
b:
16
(
0.0006250003248226179
0.0006250003246300677
0.0006250003246300669
0.0006250003248226184
0.0006250242612565032
0.0006250242505528343
0.0006250242505528348
0.0006250242612565032
0.000626414603343353
0.0006264141916590498
0.0006264141916590498
0.0006264146033433529
0.0006817939205158342
0.0006817859081067963
0.0006817859081067965
0.0006817939205158342
)

diagonalPBiCGStab:  Solving for Sh2, Initial residual = 0.009565747599273448, Final residual = 4.47471154573984e-18, No Iterations 3
ExecutionTime = 0.03 s  ClockTime = 0 s

Courant Number mean: 0 max: 0
deltaT = 1
Time = 36

PIMPLE: iteration 1
smoothSolver:  Solving for Ux, Initial residual = 0, Final residual = 0, No Iterations 0
smoothSolver:  Solving for Uy, Initial residual = 0, Final residual = 0, No Iterations 0
GAMG:  Solving for p, Initial residual = 0, Final residual = 0, No Iterations 0
time step continuity errors : sum local = 0, global = 0, cumulative = 0

>>>>>>>>>>>>>>>>>>>>>>>>>>>>>>> A*x=b: (no source term)
b:
16
(
0.0006250003622136414
0.0006250003619993508
0.0006250003619993499
0.000625000362213642
0.0006250263367257203
0.0006250263251324112
0.0006250263251324117
0.0006250263367257203
0.0006264943127216769
0.0006264938789692865
0.0006264938789692865
0.0006264943127216768
0.0006833430272098929
0.0006833348255227505
0.0006833348255227508
0.0006833430272098929
)

diagonalPBiCGStab:  Solving for Sh2, Initial residual = 0.009291230374198751, Final residual = 4.337848044896301e-18, No Iterations 3
ExecutionTime = 0.03 s  ClockTime = 0 s

Courant Number mean: 0 max: 0
deltaT = 1
Time = 37

PIMPLE: iteration 1
smoothSolver:  Solving for Ux, Initial residual = 0, Final residual = 0, No Iterations 0
smoothSolver:  Solving for Uy, Initial residual = 0, Final residual = 0, No Iterations 0
GAMG:  Solving for p, Initial residual = 0, Final residual = 0, No Iterations 0
time step continuity errors : sum local = 0, global = 0, cumulative = 0

>>>>>>>>>>>>>>>>>>>>>>>>>>>>>>> A*x=b: (no source term)
b:
16
(
0.0006250004026943697
0.0006250004024566006
0.0006250004024565997
0.0006250004026943703
0.0006250285235448608
0.0006250285110170348
0.0006250285110170352
0.0006250285235448608
0.0006265760102660392
0.0006265755539869919
0.0006265755539869919
0.0006265760102660391
0.0006848855915882187
0.0006848772029812401
0.0006848772029812403
0.0006848855915882187
)

diagonalPBiCGStab:  Solving for Sh2, Initial residual = 0.009031844479747668, Final residual = 4.208502440246994e-18, No Iterations 3
ExecutionTime = 0.03 s  ClockTime = 0 s

Courant Number mean: 0 max: 0
deltaT = 1
Time = 38

PIMPLE: iteration 1
smoothSolver:  Solving for Ux, Initial residual = 0, Final residual = 0, No Iterations 0
smoothSolver:  Solving for Uy, Initial residual = 0, Final residual = 0, No Iterations 0
GAMG:  Solving for p, Initial residual = 0, Final residual = 0, No Iterations 0
time step continuity errors : sum local = 0, global = 0, cumulative = 0

>>>>>>>>>>>>>>>>>>>>>>>>>>>>>>> A*x=b: (no source term)
b:
16
(
0.0006250004464240392
0.0006250004461609706
0.0006250004461609697
0.0006250004464240398
0.0006250308242309115
0.0006250308107229017
0.0006250308107229023
0.0006250308242309115
0.0006266596810875078
0.0006266592018315024
0.0006266592018315024
0.0006266596810875077
0.0006864216446049655
0.0006864130714140177
0.0006864130714140179
0.0006864216446049655
)

diagonalPBiCGStab:  Solving for Sh2, Initial residual = 0.008786373988383478, Final residual = 4.086070523646264e-18, No Iterations 3
ExecutionTime = 0.03 s  ClockTime = 0 s

Courant Number mean: 0 max: 0
deltaT = 1
Time = 39

PIMPLE: iteration 1
smoothSolver:  Solving for Ux, Initial residual = 0, Final residual = 0, No Iterations 0
smoothSolver:  Solving for Uy, Initial residual = 0, Final residual = 0, No Iterations 0
GAMG:  Solving for p, Initial residual = 0, Final residual = 0, No Iterations 0
time step continuity errors : sum local = 0, global = 0, cumulative = 0

>>>>>>>>>>>>>>>>>>>>>>>>>>>>>>> A*x=b: (no source term)
b:
16
(
0.0006250004935652346
0.0006250004932749608
0.00062500049327496
0.0006250004935652351
0.0006250332412726287
0.0006250332267379986
0.0006250332267379991
0.0006250332412726287
0.0006267453103876741
0.0006267448077125833
0.0006267448077125833
0.0006267453103876741
0.000687951217059989
0.0006879424615987337
0.000687942461598734
0.000687951217059989
)

diagonalPBiCGStab:  Solving for Sh2, Initial residual = 0.008553729851600108, Final residual = 3.970011136272489e-18, No Iterations 3
ExecutionTime = 0.03 s  ClockTime = 0 s

Courant Number mean: 0 max: 0
deltaT = 1
Time = 40

PIMPLE: iteration 1
smoothSolver:  Solving for Ux, Initial residual = 0, Final residual = 0, No Iterations 0
smoothSolver:  Solving for Uy, Initial residual = 0, Final residual = 0, No Iterations 0
GAMG:  Solving for p, Initial residual = 0, Final residual = 0, No Iterations 0
time step continuity errors : sum local = 0, global = 0, cumulative = 0

>>>>>>>>>>>>>>>>>>>>>>>>>>>>>>> A*x=b: (no source term)
b:
16
(
0.0006250005442838441
0.0006250005439643734
0.0006250005439643726
0.0006250005442838447
0.0006250357771307527
0.0006250357615223164
0.0006250357615223168
0.0006250357771307527
0.0006268328834581319
0.0006268323569299089
0.0006268323569299089
0.000626832883458132
0.0006894743395996393
0.0006894654041597274
0.0006894654041597276
0.0006894743395996393
)

diagonalPBiCGStab:  Solving for Sh2, Initial residual = 0.008332933771293079, Final residual = 3.859838153909289e-18, No Iterations 3
ExecutionTime = 0.03 s  ClockTime = 0 s

Courant Number mean: 0 max: 0
deltaT = 1
Time = 41

PIMPLE: iteration 1
smoothSolver:  Solving for Ux, Initial residual = 0, Final residual = 0, No Iterations 0
smoothSolver:  Solving for Uy, Initial residual = 0, Final residual = 0, No Iterations 0
GAMG:  Solving for p, Initial residual = 0, Final residual = 0, No Iterations 0
time step continuity errors : sum local = 0, global = 0, cumulative = 0

>>>>>>>>>>>>>>>>>>>>>>>>>>>>>>> A*x=b: (no source term)
b:
16
(
0.0006250005987490148
0.0006250005983982683
0.0006250005983982675
0.0006250005987490152
0.0006250384342382213
0.0006250384175080637
0.0006250384175080641
0.0006250384342382213
0.0006269223856799609
0.000626921834872546
0.000626921834872546
0.0006269223856799609
0.0006909910427175489
0.0006909819295688137
0.0006909819295688138
0.0006909910427175489
)

diagonalPBiCGStab:  Solving for Sh2, Initial residual = 0.008123104470381613, Final residual = 3.755113664531381e-18, No Iterations 3
ExecutionTime = 0.03 s  ClockTime = 0 s

Courant Number mean: 0 max: 0
deltaT = 1
Time = 42

PIMPLE: iteration 1
smoothSolver:  Solving for Ux, Initial residual = 0, Final residual = 0, No Iterations 0
smoothSolver:  Solving for Uy, Initial residual = 0, Final residual = 0, No Iterations 0
GAMG:  Solving for p, Initial residual = 0, Final residual = 0, No Iterations 0
time step continuity errors : sum local = 0, global = 0, cumulative = 0

>>>>>>>>>>>>>>>>>>>>>>>>>>>>>>> A*x=b: (no source term)
b:
16
(
0.0006250006571331076
0.0006250006567489186
0.0006250006567489177
0.000625000657133108
0.0006250412150003827
0.0006250411970998789
0.0006250411970998793
0.0006250412150003827
0.0006270138025232107
0.0006270132270184403
0.0006270132270184403
0.0006270138025232108
0.0006925013567554171
0.0006924920681460648
0.0006924920681460649
0.0006925013567554171
)

diagonalPBiCGStab:  Solving for Sh2, Initial residual = 0.007923445956431904, Final residual = 3.655442136217269e-18, No Iterations 3
ExecutionTime = 0.03 s  ClockTime = 0 s

Courant Number mean: 0 max: 0
deltaT = 1
Time = 43

PIMPLE: iteration 1
smoothSolver:  Solving for Ux, Initial residual = 0, Final residual = 0, No Iterations 0
smoothSolver:  Solving for Uy, Initial residual = 0, Final residual = 0, No Iterations 0
GAMG:  Solving for p, Initial residual = 0, Final residual = 0, No Iterations 0
time step continuity errors : sum local = 0, global = 0, cumulative = 0

>>>>>>>>>>>>>>>>>>>>>>>>>>>>>>> A*x=b: (no source term)
b:
16
(
0.0006250007196116541
0.0006250007191917666
0.0006250007191917657
0.0006250007196116546
0.0006250441217952055
0.0006250441026750407
0.0006250441026750411
0.0006250441217952055
0.0006271071195463906
0.0006271065189339059
0.0006271065189339059
0.0006271071195463907
0.0006940053119037902
0.0006939958500605904
0.0006939958500605905
0.0006940053119037902
)

diagonalPBiCGStab:  Solving for Sh2, Initial residual = 0.007733237448684014, Final residual = 3.560465411662934e-18, No Iterations 3
ExecutionTime = 0.03 s  ClockTime = 0 s

Courant Number mean: 0 max: 0
deltaT = 1
Time = 44

PIMPLE: iteration 1
smoothSolver:  Solving for Ux, Initial residual = 0, Final residual = 0, No Iterations 0
smoothSolver:  Solving for Uy, Initial residual = 0, Final residual = 0, No Iterations 0
GAMG:  Solving for p, Initial residual = 0, Final residual = 0, No Iterations 0
time step continuity errors : sum local = 0, global = 0, cumulative = 0

>>>>>>>>>>>>>>>>>>>>>>>>>>>>>>> A*x=b: (no source term)
b:
16
(
0.0006250007863633129
0.0006250007859053802
0.0006250007859053793
0.0006250007863633131
0.0006250471569734885
0.0006250471365836767
0.0006250471365836769
0.0006250471569734885
0.0006272023223959596
0.0006272016962731166
0.0006272016962731166
0.0006272023223959596
0.0006955029382028377
0.0006954933053313107
0.000695493305331311
0.0006955029382028377
)

diagonalPBiCGStab:  Solving for Sh2, Initial residual = 0.007551824699798371, Final residual = 3.469858395762896e-18, No Iterations 3
ExecutionTime = 0.03 s  ClockTime = 0 s

Courant Number mean: 0 max: 0
deltaT = 1
Time = 45

PIMPLE: iteration 1
smoothSolver:  Solving for Ux, Initial residual = 0, Final residual = 0, No Iterations 0
smoothSolver:  Solving for Uy, Initial residual = 0, Final residual = 0, No Iterations 0
GAMG:  Solving for p, Initial residual = 0, Final residual = 0, No Iterations 0
time step continuity errors : sum local = 0, global = 0, cumulative = 0

>>>>>>>>>>>>>>>>>>>>>>>>>>>>>>> A*x=b: (no source term)
b:
16
(
0.0006250008575698256
0.0006250008570714101
0.0006250008570714092
0.0006250008575698258
0.0006250503228590675
0.0006250503011489709
0.0006250503011489711
0.0006250503228590675
0.0006272993968058208
0.0006272987447776013
0.0006272987447776013
0.0006272993968058207
0.0006969942655431238
0.0006969844638277277
0.0006969844638277278
0.0006969942655431238
)

diagonalPBiCGStab:  Solving for Sh2, Initial residual = 0.007378612492101751, Final residual = 3.383325326822035e-18, No Iterations 3
ExecutionTime = 0.03 s  ClockTime = 0 s

Courant Number mean: 0 max: 0
deltaT = 1
Time = 46

PIMPLE: iteration 1
smoothSolver:  Solving for Ux, Initial residual = 0, Final residual = 0, No Iterations 0
smoothSolver:  Solving for Uy, Initial residual = 0, Final residual = 0, No Iterations 0
GAMG:  Solving for p, Initial residual = 0, Final residual = 0, No Iterations 0
time step continuity errors : sum local = 0, global = 0, cumulative = 0

>>>>>>>>>>>>>>>>>>>>>>>>>>>>>>> A*x=b: (no source term)
b:
16
(
0.0006250009334159748
0.0006250009328745459
0.000625000932874545
0.0006250009334159751
0.000625053621749024
0.0006250535986673711
0.0006250535986673713
0.000625053621749024
0.0006273983285968181
0.0006273976502757415
0.0006273976502757415
0.000627398328596818
0.0006984793236663756
0.0006984693552706909
0.000698469355270691
0.0006984793236663756
)

diagonalPBiCGStab:  Solving for Sh2, Initial residual = 0.007213058126983289, Final residual = 3.300596541283579e-18, No Iterations 3
ExecutionTime = 0.03 s  ClockTime = 0 s

Courant Number mean: 0 max: 0
deltaT = 1
Time = 47

PIMPLE: iteration 1
smoothSolver:  Solving for Ux, Initial residual = 0, Final residual = 0, No Iterations 0
smoothSolver:  Solving for Uy, Initial residual = 0, Final residual = 0, No Iterations 0
GAMG:  Solving for p, Initial residual = 0, Final residual = 0, No Iterations 0
time step continuity errors : sum local = 0, global = 0, cumulative = 0

>>>>>>>>>>>>>>>>>>>>>>>>>>>>>>> A*x=b: (no source term)
b:
16
(
0.000625001014089541
0.0006250010135024749
0.0006250010135024741
0.0006250010140895412
0.0006250570559138881
0.0006250570314087927
0.0006250570314087929
0.0006250570559138881
0.0006274991036762365
0.0006274983986822722
0.0006274983986822722
0.0006274991036762364
0.0006999581421662475
0.0006999480092331596
0.0006999480092331597
0.0006999581421662475
)

diagonalPBiCGStab:  Solving for Sh2, Initial residual = 0.007054665757365955, Final residual = 3.221425657410761e-18, No Iterations 3
ExecutionTime = 0.03 s  ClockTime = 0 s

Courant Number mean: 0 max: 0
deltaT = 1
Time = 48

PIMPLE: iteration 1
smoothSolver:  Solving for Ux, Initial residual = 0, Final residual = 0, No Iterations 0
smoothSolver:  Solving for Uy, Initial residual = 0, Final residual = 0, No Iterations 0
GAMG:  Solving for p, Initial residual = 0, Final residual = 0, No Iterations 0
time step continuity errors : sum local = 0, global = 0, cumulative = 0

>>>>>>>>>>>>>>>>>>>>>>>>>>>>>>> A*x=b: (no source term)
b:
16
(
0.0006250010997812604
0.0006250010991458395
0.0006250010991458386
0.0006250010997812606
0.0006250606275978442
0.0006250606016168226
0.0006250606016168229
0.0006250606275978442
0.0006276017080373041
0.0006276009759977848
0.0006276009759977848
0.000627601708037304
0.0007014307504890803
0.0007014204551409626
0.0007014204551409626
0.0007014307504890803
)

diagonalPBiCGStab:  Solving for Sh2, Initial residual = 0.006902981438626083, Final residual = 3.145587115975616e-18, No Iterations 3
ExecutionTime = 0.03 s  ClockTime = 0 s

Courant Number mean: 0 max: 0
deltaT = 1
Time = 49

PIMPLE: iteration 1
smoothSolver:  Solving for Ux, Initial residual = 0, Final residual = 0, No Iterations 0
smoothSolver:  Solving for Uy, Initial residual = 0, Final residual = 0, No Iterations 0
GAMG:  Solving for p, Initial residual = 0, Final residual = 0, No Iterations 0
time step continuity errors : sum local = 0, global = 0, cumulative = 0

>>>>>>>>>>>>>>>>>>>>>>>>>>>>>>> A*x=b: (no source term)
b:
16
(
0.0006250011906847837
0.0006250011899981946
0.0006250011899981937
0.0006250011906847841
0.0006250643390189321
0.0006250643115089216
0.000625064311508922
0.0006250643390189321
0.0006277061277586974
0.0006277053683082338
0.0006277053683082338
0.0006277061277586973
0.0007028971779346579
0.0007028867222735507
0.0007028867222735507
0.0007028971779346579
)

diagonalPBiCGStab:  Solving for Sh2, Initial residual = 0.006757588793852308, Final residual = 3.072874026225067e-18, No Iterations 3
ExecutionTime = 0.03 s  ClockTime = 0 s

Courant Number mean: 0 max: 0
deltaT = 1
Time = 50

PIMPLE: iteration 1
smoothSolver:  Solving for Ux, Initial residual = 0, Final residual = 0, No Iterations 0
smoothSolver:  Solving for Uy, Initial residual = 0, Final residual = 0, No Iterations 0
GAMG:  Solving for p, Initial residual = 0, Final residual = 0, No Iterations 0
time step continuity errors : sum local = 0, global = 0, cumulative = 0

>>>>>>>>>>>>>>>>>>>>>>>>>>>>>>> A*x=b: (no source term)
b:
16
(
0.0006250012869966337
0.0006250012862559672
0.0006250012862559663
0.0006250012869966341
0.0006250681923692481
0.0006250681632766253
0.0006250681632766256
0.0006250681923692481
0.0006278123490040496
0.0006278115617844457
0.0006278115617844457
0.0006278123490040495
0.0007043574536569583
0.0007043468397647483
0.0007043468397647483
0.0007043574536569583
)

diagonalPBiCGStab:  Solving for Sh2, Initial residual = 0.006618105206323606, Final residual = 3.003096273834793e-18, No Iterations 3
ExecutionTime = 0.03 s  ClockTime = 0 s

Courant Number mean: 0 max: 0
deltaT = 1
Time = 51

PIMPLE: iteration 1
smoothSolver:  Solving for Ux, Initial residual = 0, Final residual = 0, No Iterations 0
smoothSolver:  Solving for Uy, Initial residual = 0, Final residual = 0, No Iterations 0
GAMG:  Solving for p, Initial residual = 0, Final residual = 0, No Iterations 0
time step continuity errors : sum local = 0, global = 0, cumulative = 0

>>>>>>>>>>>>>>>>>>>>>>>>>>>>>>> A*x=b: (no source term)
b:
16
(
0.000625001388916165
0.000625001388118415
0.0006250013881184142
0.0006250013889161654
0.0006250721898151463
0.0006250721590857429
0.0006250721590857432
0.0006250721898151463
0.0006279203580214612
0.0006279195426816305
0.0006279195426816305
0.0006279203580214611
0.0007058116066649032
0.0007058008366035002
0.0007058008366035002
0.0007058116066649032
)

diagonalPBiCGStab:  Solving for Sh2, Initial residual = 0.006484178465849612, Final residual = 2.93607885440561e-18, No Iterations 3
ExecutionTime = 0.03 s  ClockTime = 0 s

Courant Number mean: 0 max: 0
deltaT = 1
Time = 52

PIMPLE: iteration 1
smoothSolver:  Solving for Ux, Initial residual = 0, Final residual = 0, No Iterations 0
smoothSolver:  Solving for Uy, Initial residual = 0, Final residual = 0, No Iterations 0
GAMG:  Solving for p, Initial residual = 0, Final residual = 0, No Iterations 0
time step continuity errors : sum local = 0, global = 0, cumulative = 0

>>>>>>>>>>>>>>>>>>>>>>>>>>>>>>> A*x=b: (no source term)
b:
16
(
0.0006250014966455229
0.0006250014957875855
0.0006250014957875845
0.0006250014966455231
0.0006250763334974355
0.0006250763010765565
0.0006250763010765568
0.0006250763334974355
0.0006280301411430148
0.0006280292973388959
0.0006280292973388959
0.0006280301411430145
0.0007072596658231006
0.0007072487416346132
0.0007072487416346132
0.0007072596658231006
)

diagonalPBiCGStab:  Solving for Sh2, Initial residual = 0.006355483807097283, Final residual = 2.871660401734188e-18, No Iterations 3
ExecutionTime = 0.03 s  ClockTime = 0 s

Courant Number mean: 0 max: 0
deltaT = 1
Time = 53

PIMPLE: iteration 1
smoothSolver:  Solving for Ux, Initial residual = 0, Final residual = 0, No Iterations 0
smoothSolver:  Solving for Uy, Initial residual = 0, Final residual = 0, No Iterations 0
GAMG:  Solving for p, Initial residual = 0, Final residual = 0, No Iterations 0
time step continuity errors : sum local = 0, global = 0, cumulative = 0

>>>>>>>>>>>>>>>>>>>>>>>>>>>>>>> A*x=b: (no source term)
b:
16
(
0.0006250016103896024
0.0006250016094682752
0.0006250016094682744
0.0006250016103896026
0.0006250806255315774
0.0006250805913640173
0.0006250805913640175
0.0006250806255315774
0.0006281416847842897
0.0006281408121787652
0.0006281408121787652
0.0006281416847842893
0.0007087016598525857
0.0007086905835594957
0.0007086905835594957
0.0007087016598525857
)

diagonalPBiCGStab:  Solving for Sh2, Initial residual = 0.006231721287484543, Final residual = 2.809691884829859e-18, No Iterations 3
ExecutionTime = 0.03 s  ClockTime = 0 s

Courant Number mean: 0 max: 0
deltaT = 1
Time = 54

PIMPLE: iteration 1
smoothSolver:  Solving for Ux, Initial residual = 0, Final residual = 0, No Iterations 0
smoothSolver:  Solving for Uy, Initial residual = 0, Final residual = 0, No Iterations 0
GAMG:  Solving for p, Initial residual = 0, Final residual = 0, No Iterations 0
time step continuity errors : sum local = 0, global = 0, cumulative = 0

>>>>>>>>>>>>>>>>>>>>>>>>>>>>>>> A*x=b: (no source term)
b:
16
(
0.000625001730356009
0.0006250017293679909
0.00062500172936799
0.0006250017303560091
0.0006250850680078813
0.0006250850320379409
0.000625085032037941
0.0006250850680078813
0.000628254975443882
0.0006282540737066975
0.0006282540737066975
0.0006282549754438816
0.0007101376173315576
0.0007101263909368924
0.0007101263909368924
0.0007101376173315576
)

diagonalPBiCGStab:  Solving for Sh2, Initial residual = 0.006112613460042659, Final residual = 2.750035451511244e-18, No Iterations 3
ExecutionTime = 0.03 s  ClockTime = 0 s

Courant Number mean: 0 max: 0
deltaT = 1
Time = 55

PIMPLE: iteration 1
smoothSolver:  Solving for Ux, Initial residual = 0, Final residual = 0, No Iterations 0
smoothSolver:  Solving for Uy, Initial residual = 0, Final residual = 0, No Iterations 0
GAMG:  Solving for p, Initial residual = 0, Final residual = 0, No Iterations 0
time step continuity errors : sum local = 0, global = 0, cumulative = 0

>>>>>>>>>>>>>>>>>>>>>>>>>>>>>>> A*x=b: (no source term)
b:
16
(
0.0006250018567550183
0.0006250018556969081
0.0006250018556969071
0.0006250018567550184
0.0006250896629916992
0.0006250896251632027
0.0006250896251632027
0.0006250896629916992
0.0006283699997029266
0.0006283690685106086
0.0006283690685106086
0.0006283699997029262
0.0007115675666961112
0.0007115561921836151
0.0007115561921836151
0.0007115675666961112
)

diagonalPBiCGStab:  Solving for Sh2, Initial residual = 0.005997903303278742, Final residual = 2.692563399699264e-18, No Iterations 3
ExecutionTime = 0.03 s  ClockTime = 0 s

Courant Number mean: 0 max: 0
deltaT = 1
Time = 56

PIMPLE: iteration 1
smoothSolver:  Solving for Ux, Initial residual = 0, Final residual = 0, No Iterations 0
smoothSolver:  Solving for Uy, Initial residual = 0, Final residual = 0, No Iterations 0
GAMG:  Solving for p, Initial residual = 0, Final residual = 0, No Iterations 0
time step continuity errors : sum local = 0, global = 0, cumulative = 0

>>>>>>>>>>>>>>>>>>>>>>>>>>>>>>> A*x=b: (no source term)
b:
16
(
0.0006250019897995371
0.0006250019886678331
0.0006250019886678321
0.0006250019897995371
0.0006250944125236197
0.0006250943727799293
0.0006250943727799294
0.0006250944125236197
0.0006284867442246217
0.0006284857832603987
0.0006284857832603987
0.0006284867442246212
0.0007129915362409663
0.00071298001557527
0.00071298001557527
0.0007129915362409663
)

diagonalPBiCGStab:  Solving for Sh2, Initial residual = 0.005887352375497887, Final residual = 2.63715726026466e-18, No Iterations 3
ExecutionTime = 0.03 s  ClockTime = 0 s

Courant Number mean: 0 max: 0
deltaT = 1
Time = 57

PIMPLE: iteration 1
smoothSolver:  Solving for Ux, Initial residual = 0, Final residual = 0, No Iterations 0
smoothSolver:  Solving for Uy, Initial residual = 0, Final residual = 0, No Iterations 0
GAMG:  Solving for p, Initial residual = 0, Final residual = 0, No Iterations 0
time step continuity errors : sum local = 0, global = 0, cumulative = 0

>>>>>>>>>>>>>>>>>>>>>>>>>>>>>>> A*x=b: (no source term)
b:
16
(
0.0006250021297050635
0.0006250021284961632
0.0006250021284961621
0.0006250021297050635
0.0006250993186196586
0.0006250992769036917
0.000625099276903692
0.0006250993186196586
0.0006286051957537556
0.0006286042047074787
0.0006286042047074787
0.0006286051957537552
0.0007144095541201922
0.0007143978892469819
0.0007143978892469819
0.0007144095541201922
)

diagonalPBiCGStab:  Solving for Sh2, Initial residual = 0.005780739165712009, Final residual = 2.583706977557522e-18, No Iterations 3
ExecutionTime = 0.03 s  ClockTime = 0 s

Courant Number mean: 0 max: 0
deltaT = 1
Time = 58

PIMPLE: iteration 1
smoothSolver:  Solving for Ux, Initial residual = 0, Final residual = 0, No Iterations 0
smoothSolver:  Solving for Uy, Initial residual = 0, Final residual = 0, No Iterations 0
GAMG:  Solving for p, Initial residual = 0, Final residual = 0, No Iterations 0
time step continuity errors : sum local = 0, global = 0, cumulative = 0

>>>>>>>>>>>>>>>>>>>>>>>>>>>>>>> A*x=b: (no source term)
b:
16
(
0.0006250022766896488
0.0006250022753998479
0.000625002275399847
0.0006250022766896489
0.0006251043832714507
0.0006251043395256947
0.0006251043395256949
0.0006251043832714507
0.0006287253411162369
0.0006287243196843014
0.0006287243196843014
0.0006287253411162364
0.0007158216483479292
0.0007158098411941125
0.0007158098411941125
0.0007158216483479292
)

diagonalPBiCGStab:  Solving for Sh2, Initial residual = 0.00567785761712874, Final residual = 2.532110175687995e-18, No Iterations 3
ExecutionTime = 0.03 s  ClockTime = 0 s

Courant Number mean: 0 max: 0
deltaT = 1
Time = 59

PIMPLE: iteration 1
smoothSolver:  Solving for Ux, Initial residual = 0, Final residual = 0, No Iterations 0
smoothSolver:  Solving for Uy, Initial residual = 0, Final residual = 0, No Iterations 0
GAMG:  Solving for p, Initial residual = 0, Final residual = 0, No Iterations 0
time step continuity errors : sum local = 0, global = 0, cumulative = 0

>>>>>>>>>>>>>>>>>>>>>>>>>>>>>>> A*x=b: (no source term)
b:
16
(
0.0006250024309738591
0.0006250024295993513
0.0006250024295993502
0.0006250024309738591
0.0006251096084464381
0.0006251095626129665
0.0006251095626129666
0.0006251096084464381
0.0006288471672186265
0.0006288461151038947
0.0006288461151038947
0.000628847167218626
0.0007172278467991053
0.0007172158992729773
0.0007172158992729773
0.0007172278467991053
)

diagonalPBiCGStab:  Solving for Sh2, Initial residual = 0.005578515802509115, Final residual = 2.482271500285935e-18, No Iterations 3
ExecutionTime = 0.03 s  ClockTime = 0 s

Courant Number mean: 0 max: 0
deltaT = 1
Time = 60

PIMPLE: iteration 1
smoothSolver:  Solving for Ux, Initial residual = 0, Final residual = 0, No Iterations 0
smoothSolver:  Solving for Uy, Initial residual = 0, Final residual = 0, No Iterations 0
GAMG:  Solving for p, Initial residual = 0, Final residual = 0, No Iterations 0
time step continuity errors : sum local = 0, global = 0, cumulative = 0

>>>>>>>>>>>>>>>>>>>>>>>>>>>>>>> A*x=b: (no source term)
b:
16
(
0.0006250025927807365
0.0006250025913176123
0.0006250025913176113
0.0006250025927807367
0.0006251149960880589
0.0006251149481085462
0.0006251149481085462
0.0006251149960880589
0.0006289706610476737
0.0006289695779593978
0.0006289695779593978
0.0006289706610476732
0.0007186281772101505
0.0007186160912015575
0.0007186160912015575
0.0007186281772101505
)

diagonalPBiCGStab:  Solving for Sh2, Initial residual = 0.00548253473347849, Final residual = 2.434102026818545e-18, No Iterations 3
ExecutionTime = 0.03 s  ClockTime = 0 s

Courant Number mean: 0 max: 0
deltaT = 1
Time = 61

PIMPLE: iteration 1
smoothSolver:  Solving for Ux, Initial residual = 0, Final residual = 0, No Iterations 0
smoothSolver:  Solving for Uy, Initial residual = 0, Final residual = 0, No Iterations 0
GAMG:  Solving for p, Initial residual = 0, Final residual = 0, No Iterations 0
time step continuity errors : sum local = 0, global = 0, cumulative = 0

>>>>>>>>>>>>>>>>>>>>>>>>>>>>>>> A*x=b: (no source term)
b:
16
(
0.0006250027623357622
0.0006250027607800091
0.0006250027607800082
0.0006250027623357622
0.0006251205481159345
0.0006251204979316707
0.0006251204979316707
0.0006251205481159345
0.000629095809669853
0.0006290946953235998
0.0006290946953235998
0.0006290958096698525
0.000720022667179706
0.0007200104445602086
0.0007200104445602086
0.000720022667179706
)

diagonalPBiCGStab:  Solving for Sh2, Initial residual = 0.005389747288236624, Final residual = 2.387518727743926e-18, No Iterations 3
ExecutionTime = 0.04 s  ClockTime = 0 s

Courant Number mean: 0 max: 0
deltaT = 1
Time = 62

PIMPLE: iteration 1
smoothSolver:  Solving for Ux, Initial residual = 0, Final residual = 0, No Iterations 0
smoothSolver:  Solving for Uy, Initial residual = 0, Final residual = 0, No Iterations 0
GAMG:  Solving for p, Initial residual = 0, Final residual = 0, No Iterations 0
time step continuity errors : sum local = 0, global = 0, cumulative = 0

>>>>>>>>>>>>>>>>>>>>>>>>>>>>>>> A*x=b: (no source term)
b:
16
(
0.000625002939866818
0.0006250029382143199
0.0006250029382143189
0.000625002939866818
0.0006251262664260541
0.0006251262139779604
0.0006251262139779603
0.0006251262664260541
0.0006292226002309053
0.0006292214543484801
0.0006292214543484801
0.0006292226002309049
0.0007214113441693305
0.0007213989867923646
0.0007213989867923644
0.0007214113441693305
)

diagonalPBiCGStab:  Solving for Sh2, Initial residual = 0.005299997244192455, Final residual = 2.342443991807754e-18, No Iterations 3
ExecutionTime = 0.04 s  ClockTime = 0 s

Courant Number mean: 0 max: 0
deltaT = 1
Time = 63

PIMPLE: iteration 1
smoothSolver:  Solving for Ux, Initial residual = 0, Final residual = 0, No Iterations 0
smoothSolver:  Solving for Uy, Initial residual = 0, Final residual = 0, No Iterations 0
GAMG:  Solving for p, Initial residual = 0, Final residual = 0, No Iterations 0
time step continuity errors : sum local = 0, global = 0, cumulative = 0

>>>>>>>>>>>>>>>>>>>>>>>>>>>>>>> A*x=b: (no source term)
b:
16
(
0.0006250031256041502
0.0006250031238506867
0.0006250031238506856
0.0006250031256041501
0.00062513215289096
0.0006251320981196023
0.0006251320981196023
0.00062513215289096
0.0006293510199553806
0.0006293498422647536
0.0006293498422647536
0.0006293510199553802
0.0007227942355042034
0.0007227817452052395
0.0007227817452052393
0.0007227942355042034
)

diagonalPBiCGStab:  Solving for Sh2, Initial residual = 0.005213138403679237, Final residual = 2.298805189588806e-18, No Iterations 3
ExecutionTime = 0.04 s  ClockTime = 0 s

Courant Number mean: 0 max: 0
deltaT = 1
Time = 64

PIMPLE: iteration 1
smoothSolver:  Solving for Ux, Initial residual = 0, Final residual = 0, No Iterations 0
smoothSolver:  Solving for Uy, Initial residual = 0, Final residual = 0, No Iterations 0
GAMG:  Solving for p, Initial residual = 0, Final residual = 0, No Iterations 0
time step continuity errors : sum local = 0, global = 0, cumulative = 0

>>>>>>>>>>>>>>>>>>>>>>>>>>>>>>> A*x=b: (no source term)
b:
16
(
0.0006250033197803317
0.0006250033179215781
0.0006250033179215771
0.0006250033197803316
0.0006251382093599303
0.0006251381522055341
0.000625138152205534
0.0006251382093599303
0.0006294810561461833
0.0006294798463814153
0.0006294798463814153
0.000629481056146183
0.0007241713683738215
0.0007241587469705246
0.0007241587469705245
0.0007241713683738215
)

diagonalPBiCGStab:  Solving for Sh2, Initial residual = 0.005129033802527666, Final residual = 2.256534280219611e-18, No Iterations 3
ExecutionTime = 0.04 s  ClockTime = 0 s

Courant Number mean: 0 max: 0
deltaT = 1
Time = 65

PIMPLE: iteration 1
smoothSolver:  Solving for Ux, Initial residual = 0, Final residual = 0, No Iterations 0
smoothSolver:  Solving for Uy, Initial residual = 0, Final residual = 0, No Iterations 0
GAMG:  Solving for p, Initial residual = 0, Final residual = 0, No Iterations 0
time step continuity errors : sum local = 0, global = 0, cumulative = 0

>>>>>>>>>>>>>>>>>>>>>>>>>>>>>>> A*x=b: (no source term)
b:
16
(
0.0006250035226302266
0.0006250035206617534
0.0006250035206617522
0.0006250035226302265
0.0006251444376591605
0.000625144378061625
0.0006251443780616249
0.0006251444376591605
0.0006296126961841208
0.0006296114540852904
0.0006296114540852904
0.0006296126961841203
0.0007255427698326966
0.0007255300191250824
0.0007255300191250823
0.0007255427698326966
)

diagonalPBiCGStab:  Solving for Sh2, Initial residual = 0.005047554992430904, Final residual = 2.215567454776317e-18, No Iterations 3
ExecutionTime = 0.04 s  ClockTime = 0 s

Courant Number mean: 0 max: 0
deltaT = 1
Time = 66

PIMPLE: iteration 1
smoothSolver:  Solving for Ux, Initial residual = 0, Final residual = 0, No Iterations 0
smoothSolver:  Solving for Uy, Initial residual = 0, Final residual = 0, No Iterations 0
GAMG:  Solving for p, Initial residual = 0, Final residual = 0, No Iterations 0
time step continuity errors : sum local = 0, global = 0, cumulative = 0

>>>>>>>>>>>>>>>>>>>>>>>>>>>>>>> A*x=b: (no source term)
b:
16
(
0.0006250037343909534
0.0006250037323082251
0.0006250037323082239
0.0006250037343909533
0.0006251508395919449
0.0006251507774908564
0.0006251507774908564
0.0006251508395919449
0.0006297459275274536
0.0006297446528405852
0.0006297446528405852
0.0006297459275274533
0.0007269084668010455
0.0007268955885716364
0.0007268955885716362
0.0007269084668010455
)

diagonalPBiCGStab:  Solving for Sh2, Initial residual = 0.004968581389227493, Final residual = 2.175844812427373e-18, No Iterations 3
ExecutionTime = 0.04 s  ClockTime = 0 s

Courant Number mean: 0 max: 0
deltaT = 1
Time = 67

PIMPLE: iteration 1
smoothSolver:  Solving for Ux, Initial residual = 0, Final residual = 0, No Iterations 0
smoothSolver:  Solving for Uy, Initial residual = 0, Final residual = 0, No Iterations 0
GAMG:  Solving for p, Initial residual = 0, Final residual = 0, No Iterations 0
time step continuity errors : sum local = 0, global = 0, cumulative = 0

>>>>>>>>>>>>>>>>>>>>>>>>>>>>>>> A*x=b: (no source term)
b:
16
(
0.0006250039553018488
0.0006250039531002248
0.0006250039531002236
0.0006250039553018486
0.0006251574169388557
0.0006251573522735017
0.0006251573522735016
0.0006251574169388557
0.0006298807377114493
0.0006298794301884413
0.0006298794301884413
0.0006298807377114491
0.000728268486065478
0.0007282554820794581
0.0007282554820794579
0.000728268486065478
)

diagonalPBiCGStab:  Solving for Sh2, Initial residual = 0.004891999680118954, Final residual = 2.13731006586351e-18, No Iterations 3
ExecutionTime = 0.04 s  ClockTime = 0 s

Courant Number mean: 0 max: 0
deltaT = 1
Time = 68

PIMPLE: iteration 1
smoothSolver:  Solving for Ux, Initial residual = 0, Final residual = 0, No Iterations 0
smoothSolver:  Solving for Uy, Initial residual = 0, Final residual = 0, No Iterations 0
GAMG:  Solving for p, Initial residual = 0, Final residual = 0, No Iterations 0
time step continuity errors : sum local = 0, global = 0, cumulative = 0

>>>>>>>>>>>>>>>>>>>>>>>>>>>>>>> A*x=b: (no source term)
b:
16
(
0.0006250041856044326
0.0006250041832791662
0.0006250041832791649
0.0006250041856044325
0.0006251641714579209
0.0006251641041673034
0.0006251641041673031
0.0006251641714579209
0.0006300171143479379
0.0006300157737464916
0.0006300157737464916
0.0006300171143479377
0.0007296228542796814
0.0007296097262850493
0.0007296097262850491
0.0007296228542796814
)

diagonalPBiCGStab:  Solving for Sh2, Initial residual = 0.004817703283724811, Final residual = 2.099910272986651e-18, No Iterations 3
ExecutionTime = 0.04 s  ClockTime = 0 s

Courant Number mean: 0 max: 0
deltaT = 1
Time = 69

PIMPLE: iteration 1
smoothSolver:  Solving for Ux, Initial residual = 0, Final residual = 0, No Iterations 0
smoothSolver:  Solving for Uy, Initial residual = 0, Final residual = 0, No Iterations 0
GAMG:  Solving for p, Initial residual = 0, Final residual = 0, No Iterations 0
time step continuity errors : sum local = 0, global = 0, cumulative = 0

>>>>>>>>>>>>>>>>>>>>>>>>>>>>>>> A*x=b: (no source term)
b:
16
(
0.000625004425542372
0.0006250044230886106
0.0006250044230886095
0.0006250044255423719
0.0006251711048848016
0.0006251710349076503
0.0006251710349076501
0.0006251711048848016
0.0006301550451248694
0.0006301536712084201
0.0006301536712084201
0.0006301550451248692
0.0007309715979651013
0.0007309583476928224
0.0007309583476928221
0.0007309715979651013
)

diagonalPBiCGStab:  Solving for Sh2, Initial residual = 0.004745591857539192, Final residual = 2.063595592154378e-18, No Iterations 3
ExecutionTime = 0.04 s  ClockTime = 0 s

Courant Number mean: 0 max: 0
deltaT = 1
Time = 70

PIMPLE: iteration 1
smoothSolver:  Solving for Ux, Initial residual = 0, Final residual = 0, No Iterations 0
smoothSolver:  Solving for Uy, Initial residual = 0, Final residual = 0, No Iterations 0
GAMG:  Solving for p, Initial residual = 0, Final residual = 0, No Iterations 0
time step continuity errors : sum local = 0, global = 0, cumulative = 0

>>>>>>>>>>>>>>>>>>>>>>>>>>>>>>> A*x=b: (no source term)
b:
16
(
0.0006250046753614475
0.0006250046727742314
0.0006250046727742304
0.0006250046753614474
0.0006251782189329682
0.0006251781462077539
0.0006251781462077537
0.0006251782189329682
0.0006302945178058761
0.0006302931103435223
0.0006302931103435223
0.0006302945178058759
0.000732314743511618
0.0007323013726757749
0.0007323013726757747
0.000732314743511618
)

diagonalPBiCGStab:  Solving for Sh2, Initial residual = 0.004675570848010201, Final residual = 2.028319058601834e-18, No Iterations 3
ExecutionTime = 0.04 s  ClockTime = 0 s

Courant Number mean: 0 max: 0
deltaT = 1
Time = 71

PIMPLE: iteration 1
smoothSolver:  Solving for Ux, Initial residual = 0, Final residual = 0, No Iterations 0
smoothSolver:  Solving for Uy, Initial residual = 0, Final residual = 0, No Iterations 0
GAMG:  Solving for p, Initial residual = 0, Final residual = 0, No Iterations 0
time step continuity errors : sum local = 0, global = 0, cumulative = 0

>>>>>>>>>>>>>>>>>>>>>>>>>>>>>>> A*x=b: (no source term)
b:
16
(
0.0006250049353095164
0.00062500493258378
0.0006250049325837789
0.0006250049353095163
0.000625185515293875
0.0006251854397588215
0.0006251854397588212
0.000625185515293875
0.0006304355202298342
0.0006304340789962699
0.0006304340789962699
0.0006304355202298339
0.0007336523171782214
0.000733638827476163
0.0007336388274761628
0.0007336523171782214
)

diagonalPBiCGStab:  Solving for Sh2, Initial residual = 0.004607551079009012, Final residual = 1.994036379937956e-18, No Iterations 3
ExecutionTime = 0.04 s  ClockTime = 0 s

Courant Number mean: 0 max: 0
deltaT = 1
Time = 72

PIMPLE: iteration 1
smoothSolver:  Solving for Ux, Initial residual = 0, Final residual = 0, No Iterations 0
smoothSolver:  Solving for Uy, Initial residual = 0, Final residual = 0, No Iterations 0
GAMG:  Solving for p, Initial residual = 0, Final residual = 0, No Iterations 0
time step continuity errors : sum local = 0, global = 0, cumulative = 0

>>>>>>>>>>>>>>>>>>>>>>>>>>>>>>> A*x=b: (no source term)
b:
16
(
0.0006250052056364807
0.000625005202767051
0.00062500520276705
0.0006250052056364806
0.0006251929956371327
0.0006251929172302308
0.0006251929172302306
0.0006251929956371327
0.0006305780403104306
0.0006305765650858771
0.0006305765650858771
0.0006305780403104301
0.0007349843450936797
0.00073497073820617
0.0007349707382061697
0.0007349843450936797
)

diagonalPBiCGStab:  Solving for Sh2, Initial residual = 0.004541448374900779, Final residual = 1.960705748847949e-18, No Iterations 3
ExecutionTime = 0.04 s  ClockTime = 0 s

Courant Number mean: 0 max: 0
deltaT = 1
Time = 73

PIMPLE: iteration 1
smoothSolver:  Solving for Ux, Initial residual = 0, Final residual = 0, No Iterations 0
smoothSolver:  Solving for Uy, Initial residual = 0, Final residual = 0, No Iterations 0
GAMG:  Solving for p, Initial residual = 0, Final residual = 0, No Iterations 0
time step continuity errors : sum local = 0, global = 0, cumulative = 0

>>>>>>>>>>>>>>>>>>>>>>>>>>>>>>> A*x=b: (no source term)
b:
16
(
0.0006250054865942515
0.0006250054835758486
0.0006250054835758476
0.0006250054865942514
0.0006252006616106828
0.0006252005802697014
0.0006252005802697013
0.0006252006616106828
0.0006307220660357305
0.0006307205566058687
0.0006307205566058687
0.0006307220660357301
0.0007363108532572068
0.0007362971308485709
0.0007362971308485708
0.0007363108532572068
)

diagonalPBiCGStab:  Solving for Sh2, Initial residual = 0.004477183214894591, Final residual = 1.928287671328209e-18, No Iterations 3
ExecutionTime = 0.04 s  ClockTime = 0 s

Courant Number mean: 0 max: 0
deltaT = 1
Time = 74

PIMPLE: iteration 1
smoothSolver:  Solving for Ux, Initial residual = 0, Final residual = 0, No Iterations 0
smoothSolver:  Solving for Uy, Initial residual = 0, Final residual = 0, No Iterations 0
GAMG:  Solving for p, Initial residual = 0, Final residual = 0, No Iterations 0
time step continuity errors : sum local = 0, global = 0, cumulative = 0

>>>>>>>>>>>>>>>>>>>>>>>>>>>>>>> A*x=b: (no source term)
b:
16
(
0.0006250057784367151
0.0006250057752639522
0.000625005775263951
0.000625005778436715
0.0006252085148409667
0.000625208430503466
0.0006252084305034659
0.0006252085148409667
0.0006308675854677478
0.0006308660416236522
0.0006308660416236522
0.0006308675854677473
0.0007376318675391252
0.0007376180312573954
0.0007376180312573954
0.0007376318675391252
)

diagonalPBiCGStab:  Solving for Sh2, Initial residual = 0.004414680415667227, Final residual = 1.896744808966972e-18, No Iterations 3
ExecutionTime = 0.04 s  ClockTime = 0 s

Courant Number mean: 0 max: 0
deltaT = 1
Time = 75

PIMPLE: iteration 1
smoothSolver:  Solving for Ux, Initial residual = 0, Final residual = 0, No Iterations 0
smoothSolver:  Solving for Uy, Initial residual = 0, Final residual = 0, No Iterations 0
GAMG:  Solving for p, Initial residual = 0, Final residual = 0, No Iterations 0
time step continuity errors : sum local = 0, global = 0, cumulative = 0

>>>>>>>>>>>>>>>>>>>>>>>>>>>>>>> A*x=b: (no source term)
b:
16
(
0.000625006081419701
0.0006250060780870831
0.000625006078087082
0.0006250060814197008
0.0006252165569330968
0.0006252164695364398
0.0006252164695364397
0.0006252165569330968
0.000631014586742019
0.0006310130082800914
0.0006310130082800914
0.0006310145867420185
0.0007389474136815252
0.0007389334651585857
0.0007389334651585857
0.0007389474136815252
)

diagonalPBiCGStab:  Solving for Sh2, Initial residual = 0.004353868839605553, Final residual = 1.866041833969034e-18, No Iterations 3
ExecutionTime = 0.04 s  ClockTime = 0 s

Courant Number mean: 0 max: 0
deltaT = 1
Time = 76

PIMPLE: iteration 1
smoothSolver:  Solving for Ux, Initial residual = 0, Final residual = 0, No Iterations 0
smoothSolver:  Solving for Uy, Initial residual = 0, Final residual = 0, No Iterations 0
GAMG:  Solving for p, Initial residual = 0, Final residual = 0, No Iterations 0
time step continuity errors : sum local = 0, global = 0, cumulative = 0

>>>>>>>>>>>>>>>>>>>>>>>>>>>>>>> A*x=b: (no source term)
b:
16
(
0.0006250063958009466
0.0006250063923028722
0.000625006392302871
0.0006250063958009465
0.0006252247894710253
0.0006252246989523901
0.00062522469895239
0.0006252247894710253
0.0006311630580671778
0.000631161444789082
0.000631161444789082
0.0006311630580671774
0.0007402575172989219
0.0007402434581506511
0.0007402434581506511
0.0007402575172989219
)

diagonalPBiCGStab:  Solving for Sh2, Initial residual = 0.004294681126282789, Final residual = 1.836145295720474e-18, No Iterations 3
ExecutionTime = 0.04 s  ClockTime = 0 s

Courant Number mean: 0 max: 0
deltaT = 1
Time = 77

PIMPLE: iteration 1
smoothSolver:  Solving for Ux, Initial residual = 0, Final residual = 0, No Iterations 0
smoothSolver:  Solving for Uy, Initial residual = 0, Final residual = 0, No Iterations 0
GAMG:  Solving for p, Initial residual = 0, Final residual = 0, No Iterations 0
time step continuity errors : sum local = 0, global = 0, cumulative = 0

>>>>>>>>>>>>>>>>>>>>>>>>>>>>>>> A*x=b: (no source term)
b:
16
(
0.0006250067218400661
0.0006250067181708255
0.0006250067181708242
0.000625006721840066
0.0006252332140177118
0.0006252331203141026
0.0006252331203141025
0.0006252332140177118
0.000631312987724533
0.0006313113394371299
0.0006313113394371299
0.0006313129877245327
0.000741562203878907
0.0007415480357053197
0.0007415480357053197
0.000741562203878907
)

diagonalPBiCGStab:  Solving for Sh2, Initial residual = 0.004237053445052684, Final residual = 1.807023497838285e-18, No Iterations 3
ExecutionTime = 0.04 s  ClockTime = 0 s

Courant Number mean: 0 max: 0
deltaT = 1
Time = 78

PIMPLE: iteration 1
smoothSolver:  Solving for Ux, Initial residual = 0, Final residual = 0, No Iterations 0
smoothSolver:  Solving for Uy, Initial residual = 0, Final residual = 0, No Iterations 0
GAMG:  Solving for p, Initial residual = 0, Final residual = 0, No Iterations 0
time step continuity errors : sum local = 0, global = 0, cumulative = 0

>>>>>>>>>>>>>>>>>>>>>>>>>>>>>>> A*x=b: (no source term)
b:
16
(
0.0006250070597985168
0.0006250070559522934
0.0006250070559522921
0.0006250070597985167
0.0006252418321152897
0.0006252417351635493
0.0006252417351635491
0.0006252418321152897
0.0006314643640676487
0.0006314626805829334
0.0006314626805829334
0.0006314643640676485
0.0007428614987827991
0.0007428472231681874
0.0007428472231681874
0.0007428614987827991
)

[...]
ExecutionTime = 0.19 s  ClockTime = 0 s

Courant Number mean: 0 max: 0
deltaT = 1
Time = 481

PIMPLE: iteration 1
smoothSolver:  Solving for Ux, Initial residual = 0, Final residual = 0, No Iterations 0
smoothSolver:  Solving for Uy, Initial residual = 0, Final residual = 0, No Iterations 0
GAMG:  Solving for p, Initial residual = 0, Final residual = 0, No Iterations 0
time step continuity errors : sum local = 0, global = 0, cumulative = 0

>>>>>>>>>>>>>>>>>>>>>>>>>>>>>>> A*x=b: (no source term)
b:
16
(
0.0006293038225072093
0.0006293026852703872
0.0006293026852703882
0.0006293038225072094
0.000648276016928507
0.0006482719182428528
0.0006482719182428536
0.000648276016928507
0.0007357088680431108
0.0007356977847546202
0.0007356977847546202
0.0007357088680431114
0.001008443135219598
0.001008430567406057
0.001008430567406058
0.001008443135219598
)

diagonalPBiCGStab:  Solving for Sh2, Initial residual = 0.0006850319187080062, Final residual = 8.989129628797899e-18, No Iterations 3
ExecutionTime = 0.19 s  ClockTime = 0 s

Courant Number mean: 0 max: 0
deltaT = 1
Time = 482

PIMPLE: iteration 1
smoothSolver:  Solving for Ux, Initial residual = 0, Final residual = 0, No Iterations 0
smoothSolver:  Solving for Uy, Initial residual = 0, Final residual = 0, No Iterations 0
GAMG:  Solving for p, Initial residual = 0, Final residual = 0, No Iterations 0
time step continuity errors : sum local = 0, global = 0, cumulative = 0

>>>>>>>>>>>>>>>>>>>>>>>>>>>>>>> A*x=b: (no source term)
b:
16
(
0.0006293312346599953
0.0006293300920597241
0.0006293300920597252
0.0006293312346599954
0.0006483746860622857
0.0006483705776509911
0.0006483705776509919
0.0006483746860622857
0.0007359753673778947
0.000735964281330622
0.000735964281330622
0.0007359753673778953
0.001008744950341295
0.001008732408553479
0.001008732408553479
0.001008744950341295
)

diagonalPBiCGStab:  Solving for Sh2, Initial residual = 0.0006838304495361098, Final residual = 8.908322881936932e-18, No Iterations 3
ExecutionTime = 0.19 s  ClockTime = 0 s

Courant Number mean: 0 max: 0
deltaT = 1
Time = 483

PIMPLE: iteration 1
smoothSolver:  Solving for Ux, Initial residual = 0, Final residual = 0, No Iterations 0
smoothSolver:  Solving for Uy, Initial residual = 0, Final residual = 0, No Iterations 0
GAMG:  Solving for p, Initial residual = 0, Final residual = 0, No Iterations 0
time step continuity errors : sum local = 0, global = 0, cumulative = 0

>>>>>>>>>>>>>>>>>>>>>>>>>>>>>>> A*x=b: (no source term)
b:
16
(
0.0006293587494338674
0.0006293576014629594
0.0006293576014629605
0.0006293587494338676
0.0006484734936546082
0.0006484693755397916
0.0006484693755397923
0.0006484734936546082
0.0007362416754114817
0.0007362305866749207
0.0007362305866749207
0.0007362416754114823
0.001009045849684907
0.001009033333878437
0.001009033333878438
0.001009045849684907
)

diagonalPBiCGStab:  Solving for Sh2, Initial residual = 0.0006826346695275272, Final residual = 8.827294233799325e-18, No Iterations 3
ExecutionTime = 0.19 s  ClockTime = 0 s

Courant Number mean: 0 max: 0
deltaT = 1
Time = 484

PIMPLE: iteration 1
smoothSolver:  Solving for Ux, Initial residual = 0, Final residual = 0, No Iterations 0
smoothSolver:  Solving for Uy, Initial residual = 0, Final residual = 0, No Iterations 0
GAMG:  Solving for p, Initial residual = 0, Final residual = 0, No Iterations 0
time step continuity errors : sum local = 0, global = 0, cumulative = 0

>>>>>>>>>>>>>>>>>>>>>>>>>>>>>>> A*x=b: (no source term)
b:
16
(
0.0006293863668795756
0.0006293852135308973
0.0006293852135308984
0.0006293863668795757
0.0006485724391800756
0.0006485683113839011
0.0006485683113839018
0.0006485724391800756
0.0007365077915819829
0.0007364967002252872
0.0007364967002252872
0.0007365077915819833
0.001009345836912088
0.00100933334704242
0.00100933334704242
0.001009345836912088
)

diagonalPBiCGStab:  Solving for Sh2, Initial residual = 0.0006814445417937895, Final residual = 8.746043189972021e-18, No Iterations 3
ExecutionTime = 0.19 s  ClockTime = 0 s

Courant Number mean: 0 max: 0
deltaT = 1
Time = 485

PIMPLE: iteration 1
smoothSolver:  Solving for Ux, Initial residual = 0, Final residual = 0, No Iterations 0
smoothSolver:  Solving for Uy, Initial residual = 0, Final residual = 0, No Iterations 0
GAMG:  Solving for p, Initial residual = 0, Final residual = 0, No Iterations 0
time step continuity errors : sum local = 0, global = 0, cumulative = 0

>>>>>>>>>>>>>>>>>>>>>>>>>>>>>>> A*x=b: (no source term)
b:
16
(
0.0006294140870470421
0.000629412928313515
0.0006294129283135161
0.0006294140870470422
0.0006486715221140713
0.0006486673846587479
0.0006486673846587487
0.0006486715221140713
0.0007367737153336
0.0007367626214255836
0.0007367626214255836
0.0007367737153336004
0.001009644915667951
0.00100963245169038
0.00100963245169038
0.001009644915667951
)

diagonalPBiCGStab:  Solving for Sh2, Initial residual = 0.0006802600297549993, Final residual = 8.664569652986943e-18, No Iterations 3
ExecutionTime = 0.19 s  ClockTime = 0 s

Courant Number mean: 0 max: 0
deltaT = 1
Time = 486

PIMPLE: iteration 1
smoothSolver:  Solving for Ux, Initial residual = 0, Final residual = 0, No Iterations 0
smoothSolver:  Solving for Uy, Initial residual = 0, Final residual = 0, No Iterations 0
GAMG:  Solving for p, Initial residual = 0, Final residual = 0, No Iterations 0
time step continuity errors : sum local = 0, global = 0, cumulative = 0

>>>>>>>>>>>>>>>>>>>>>>>>>>>>>>> A*x=b: (no source term)
b:
16
(
0.0006294419099853655
0.0006294407458599653
0.0006294407458599663
0.0006294419099853657
0.000648770741932766
0.0006487665948405469
0.0006487665948405478
0.000648770741932766
0.0007370394461165857
0.0007370283497257238
0.0007370283497257238
0.0007370394461165862
0.001009943089581156
0.001009930651450817
0.001009930651450817
0.001009943089581156
)

diagonalPBiCGStab:  Solving for Sh2, Initial residual = 0.0006790810971344954, Final residual = 8.582873927156682e-18, No Iterations 3
ExecutionTime = 0.19 s  ClockTime = 0 s

Courant Number mean: 0 max: 0
deltaT = 1
Time = 487

PIMPLE: iteration 1
smoothSolver:  Solving for Ux, Initial residual = 0, Final residual = 0, No Iterations 0
smoothSolver:  Solving for Uy, Initial residual = 0, Final residual = 0, No Iterations 0
GAMG:  Solving for p, Initial residual = 0, Final residual = 0, No Iterations 0
time step continuity errors : sum local = 0, global = 0, cumulative = 0

>>>>>>>>>>>>>>>>>>>>>>>>>>>>>>> A*x=b: (no source term)
b:
16
(
0.0006294698357428215
0.0006294686662185785
0.0006294686662185794
0.0006294698357428217
0.0006488700981131229
0.0006488659414063047
0.0006488659414063057
0.0006488700981131229
0.0007373049833872037
0.0007372938845816335
0.0007372938845816335
0.0007373049833872042
0.001010240362263983
0.001010227949935856
0.001010227949935856
0.001010240362263983
)

diagonalPBiCGStab:  Solving for Sh2, Initial residual = 0.0006779077079572477, Final residual = 8.500956722325248e-18, No Iterations 3
ExecutionTime = 0.19 s  ClockTime = 0 s

Courant Number mean: 0 max: 0
deltaT = 1
Time = 488

PIMPLE: iteration 1
smoothSolver:  Solving for Ux, Initial residual = 0, Final residual = 0, No Iterations 0
smoothSolver:  Solving for Uy, Initial residual = 0, Final residual = 0, No Iterations 0
GAMG:  Solving for p, Initial residual = 0, Final residual = 0, No Iterations 0
time step continuity errors : sum local = 0, global = 0, cumulative = 0

>>>>>>>>>>>>>>>>>>>>>>>>>>>>>>> A*x=b: (no source term)
b:
16
(
0.0006294978643668658
0.0006294966894368646
0.0006294966894368655
0.000629497864366866
0.0006489695901329034
0.000648965423833825
0.0006489654238338258
0.0006489695901329034
0.0007375703266076892
0.0007375592254552113
0.0007375592254552113
0.0007375703266076897
0.001010536737312416
0.001010524350741327
0.001010524350741327
0.001010536737312416
)

diagonalPBiCGStab:  Solving for Sh2, Initial residual = 0.0006767398265459395, Final residual = 8.418819156626805e-18, No Iterations 3
ExecutionTime = 0.19 s  ClockTime = 0 s

Courant Number mean: 0 max: 0
deltaT = 1
Time = 489

PIMPLE: iteration 1
smoothSolver:  Solving for Ux, Initial residual = 0, Final residual = 0, No Iterations 0
smoothSolver:  Solving for Uy, Initial residual = 0, Final residual = 0, No Iterations 0
GAMG:  Solving for p, Initial residual = 0, Final residual = 0, No Iterations 0
time step continuity errors : sum local = 0, global = 0, cumulative = 0

>>>>>>>>>>>>>>>>>>>>>>>>>>>>>>> A*x=b: (no source term)
b:
16
(
0.0006295259959041363
0.0006295248155615159
0.0006295248155615169
0.0006295259959041364
0.0006490692174706709
0.000649065041601713
0.0006490650416017138
0.0006490692174706709
0.0007378354752462105
0.0007378243718142884
0.0007378243718142884
0.0007378354752462109
0.001010832218306214
0.001010819857446842
0.001010819857446843
0.001010832218306214
)

diagonalPBiCGStab:  Solving for Sh2, Initial residual = 0.0006755774175184289, Final residual = 8.336462761417569e-18, No Iterations 3
ExecutionTime = 0.19 s  ClockTime = 0 s

Courant Number mean: 0 max: 0
deltaT = 1
Time = 490

PIMPLE: iteration 1
smoothSolver:  Solving for Ux, Initial residual = 0, Final residual = 0, No Iterations 0
smoothSolver:  Solving for Uy, Initial residual = 0, Final residual = 0, No Iterations 0
GAMG:  Solving for p, Initial residual = 0, Final residual = 0, No Iterations 0
time step continuity errors : sum local = 0, global = 0, cumulative = 0

>>>>>>>>>>>>>>>>>>>>>>>>>>>>>>> A*x=b: (no source term)
b:
16
(
0.0006295542304004559
0.0006295530446384098
0.0006295530446384108
0.000629554230400456
0.0006491689796057971
0.0006491647941893815
0.0006491647941893824
0.0006491689796057971
0.0007381004287768283
0.0007380893231325903
0.0007380893231325903
0.0007381004287768287
0.001011126808808998
0.001011114473615875
0.001011114473615875
0.001011126808808998
)

diagonalPBiCGStab:  Solving for Sh2, Initial residual = 0.0006744204457841966, Final residual = 8.253889483979192e-18, No Iterations 3
ExecutionTime = 0.19 s  ClockTime = 0 s

Courant Number mean: 0 max: 0
deltaT = 1
Time = 491

PIMPLE: iteration 1
smoothSolver:  Solving for Ux, Initial residual = 0, Final residual = 0, No Iterations 0
smoothSolver:  Solving for Uy, Initial residual = 0, Final residual = 0, No Iterations 0
GAMG:  Solving for p, Initial residual = 0, Final residual = 0, No Iterations 0
time step continuity errors : sum local = 0, global = 0, cumulative = 0

>>>>>>>>>>>>>>>>>>>>>>>>>>>>>>> A*x=b: (no source term)
b:
16
(
0.0006295825679008343
0.0006295813767126102
0.0006295813767126111
0.0006295825679008343
0.0006492688760184658
0.0006492646810770544
0.0006492646810770553
0.0006492688760184658
0.0007383651866794577
0.0007383540788896975
0.0007383540788896975
0.0007383651866794583
0.001011420512368323
0.001011408202795839
0.001011408202795839
0.001011420512368323
)

diagonalPBiCGStab:  Solving for Sh2, Initial residual = 0.000673268876541152, Final residual = 8.171101689197157e-18, No Iterations 3
ExecutionTime = 0.19 s  ClockTime = 0 s

Courant Number mean: 0 max: 0
deltaT = 1
Time = 492

PIMPLE: iteration 1
smoothSolver:  Solving for Ux, Initial residual = 0, Final residual = 0, No Iterations 0
smoothSolver:  Solving for Uy, Initial residual = 0, Final residual = 0, No Iterations 0
GAMG:  Solving for p, Initial residual = 0, Final residual = 0, No Iterations 0
time step continuity errors : sum local = 0, global = 0, cumulative = 0

>>>>>>>>>>>>>>>>>>>>>>>>>>>>>>> A*x=b: (no source term)
b:
16
(
0.0006296110084494703
0.00062960981182837
0.0006296098118283711
0.0006296110084494702
0.0006493689061896788
0.000649364701745773
0.0006493647017457739
0.0006493689061896788
0.0007386297484398308
0.0007386186385710081
0.0007386186385710081
0.0007386297484398314
0.001011713332515756
0.001011701048518161
0.001011701048518162
0.001011713332515756
)

diagonalPBiCGStab:  Solving for Sh2, Initial residual = 0.0006721226752755564, Final residual = 8.088102162785338e-18, No Iterations 3
ExecutionTime = 0.19 s  ClockTime = 0 s

Courant Number mean: 0 max: 0
deltaT = 1
Time = 493

PIMPLE: iteration 1
smoothSolver:  Solving for Ux, Initial residual = 0, Final residual = 0, No Iterations 0
smoothSolver:  Solving for Uy, Initial residual = 0, Final residual = 0, No Iterations 0
GAMG:  Solving for p, Initial residual = 0, Final residual = 0, No Iterations 0
time step continuity errors : sum local = 0, global = 0, cumulative = 0

>>>>>>>>>>>>>>>>>>>>>>>>>>>>>>> A*x=b: (no source term)
b:
16
(
0.0006296395520897545
0.0006296383500291343
0.0006296383500291354
0.0006296395520897544
0.0006494690696012598
0.0006494648556773996
0.0006494648556774007
0.0006494690696012598
0.0007388941135494563
0.0007388830016676982
0.0007388830016676982
0.0007388941135494569
0.001012005272766959
0.001011993014298364
0.001011993014298365
0.001012005272766959
)

diagonalPBiCGStab:  Solving for Sh2, Initial residual = 0.0006709818077541847, Final residual = 8.004894113043379e-18, No Iterations 3
ExecutionTime = 0.19 s  ClockTime = 0 s

Courant Number mean: 0 max: 0
deltaT = 1
Time = 494

PIMPLE: iteration 1
smoothSolver:  Solving for Ux, Initial residual = 0, Final residual = 0, No Iterations 0
smoothSolver:  Solving for Uy, Initial residual = 0, Final residual = 0, No Iterations 0
GAMG:  Solving for p, Initial residual = 0, Final residual = 0, No Iterations 0
time step continuity errors : sum local = 0, global = 0, cumulative = 0

>>>>>>>>>>>>>>>>>>>>>>>>>>>>>>> A*x=b: (no source term)
b:
16
(
0.0006296681988642719
0.0006296669913575424
0.0006296669913575434
0.0006296681988642718
0.0006495693657358596
0.000649565142354623
0.0006495651423546242
0.0006495693657358596
0.0007391582815055828
0.000739147167676684
0.000739147167676684
0.0007391582815055833
0.001012296336621755
0.00101228410363614
0.00101228410363614
0.001012296336621755
)

diagonalPBiCGStab:  Solving for Sh2, Initial residual = 0.0006698462400248899, Final residual = 7.921481171972698e-18, No Iterations 3
ExecutionTime = 0.19 s  ClockTime = 0 s

Courant Number mean: 0 max: 0
deltaT = 1
Time = 495

PIMPLE: iteration 1
smoothSolver:  Solving for Ux, Initial residual = 0, Final residual = 0, No Iterations 0
smoothSolver:  Solving for Uy, Initial residual = 0, Final residual = 0, No Iterations 0
GAMG:  Solving for p, Initial residual = 0, Final residual = 0, No Iterations 0
time step continuity errors : sum local = 0, global = 0, cumulative = 0

>>>>>>>>>>>>>>>>>>>>>>>>>>>>>>> A*x=b: (no source term)
b:
16
(
0.0006296969488148036
0.0006296957358554289
0.00062969573585543
0.0006296969488148036
0.0006496697940769606
0.0006496655612609631
0.0006496655612609643
0.0006496697940769606
0.00073942225181116
0.0007394111361005841
0.0007394111361005841
0.0007394222518111606
0.001012586527564211
0.001012574320015425
0.001012574320015425
0.001012586527564211
)

diagonalPBiCGStab:  Solving for Sh2, Initial residual = 0.000668715938413905, Final residual = 7.837867396979984e-18, No Iterations 3
ExecutionTime = 0.19 s  ClockTime = 0 s

Courant Number mean: 0 max: 0
deltaT = 1
Time = 496

PIMPLE: iteration 1
smoothSolver:  Solving for Ux, Initial residual = 0, Final residual = 0, No Iterations 0
smoothSolver:  Solving for Uy, Initial residual = 0, Final residual = 0, No Iterations 0
GAMG:  Solving for p, Initial residual = 0, Final residual = 0, No Iterations 0
time step continuity errors : sum local = 0, global = 0, cumulative = 0

>>>>>>>>>>>>>>>>>>>>>>>>>>>>>>> A*x=b: (no source term)
b:
16
(
0.0006297258019823295
0.0006297245835638279
0.0006297245835638289
0.0006297258019823295
0.0006497703541088815
0.0006497661118807749
0.0006497661118807759
0.0006497703541088815
0.0007396860239748022
0.0007396749064476825
0.0007396749064476825
0.0007396860239748029
0.001012875849062717
0.001012863666904479
0.001012863666904479
0.001012875849062717
)

diagonalPBiCGStab:  Solving for Sh2, Initial residual = 0.0006675908695203509, Final residual = 7.754057271369885e-18, No Iterations 3
ExecutionTime = 0.19 s  ClockTime = 0 s

Courant Number mean: 0 max: 0
deltaT = 1
Time = 497

PIMPLE: iteration 1
smoothSolver:  Solving for Ux, Initial residual = 0, Final residual = 0, No Iterations 0
smoothSolver:  Solving for Uy, Initial residual = 0, Final residual = 0, No Iterations 0
GAMG:  Solving for p, Initial residual = 0, Final residual = 0, No Iterations 0
time step continuity errors : sum local = 0, global = 0, cumulative = 0

>>>>>>>>>>>>>>>>>>>>>>>>>>>>>>> A*x=b: (no source term)
b:
16
(
0.0006297547584070305
0.0006297535345229745
0.0006297535345229755
0.0006297547584070305
0.0006498710453167816
0.0006498667936992535
0.0006498667936992544
0.0006498710453167816
0.0007399495975107496
0.0007399384782318898
0.0007399384782318898
0.0007399495975107501
0.001013164304570053
0.001013152147755958
0.001013152147755959
0.001013164304570053
)

diagonalPBiCGStab:  Solving for Sh2, Initial residual = 0.0006664710002176931, Final residual = 7.670055704341112e-18, No Iterations 3
ExecutionTime = 0.19 s  ClockTime = 0 s

Courant Number mean: 0 max: 0
deltaT = 1
Time = 498

PIMPLE: iteration 1
smoothSolver:  Solving for Ux, Initial residual = 0, Final residual = 0, No Iterations 0
smoothSolver:  Solving for Uy, Initial residual = 0, Final residual = 0, No Iterations 0
GAMG:  Solving for p, Initial residual = 0, Final residual = 0, No Iterations 0
time step continuity errors : sum local = 0, global = 0, cumulative = 0

>>>>>>>>>>>>>>>>>>>>>>>>>>>>>>> A*x=b: (no source term)
b:
16
(
0.0006297838181282912
0.0006297825887723068
0.0006297825887723078
0.0006297838181282911
0.0006499718671866658
0.0006499676062024386
0.0006499676062024394
0.0006499718671866658
0.0007402129719388316
0.0007402018509727072
0.0007402018509727072
0.000740212971938832
0.00101345189752347
0.001013439766006991
0.001013439766006992
0.00101345189752347
)

diagonalPBiCGStab:  Solving for Sh2, Initial residual = 0.0006653562976456375, Final residual = 7.585868030694862e-18, No Iterations 3
ExecutionTime = 0.19 s  ClockTime = 0 s

Courant Number mean: 0 max: 0
deltaT = 1
Time = 499

PIMPLE: iteration 1
smoothSolver:  Solving for Ux, Initial residual = 0, Final residual = 0, No Iterations 0
smoothSolver:  Solving for Uy, Initial residual = 0, Final residual = 0, No Iterations 0
GAMG:  Solving for p, Initial residual = 0, Final residual = 0, No Iterations 0
time step continuity errors : sum local = 0, global = 0, cumulative = 0

>>>>>>>>>>>>>>>>>>>>>>>>>>>>>>> A*x=b: (no source term)
b:
16
(
0.0006298129811847015
0.0006298117463504693
0.0006298117463504702
0.0006298129811847014
0.0006500728192053883
0.0006500685488772187
0.0006500685488772195
0.0006500728192053883
0.0007404761467844304
0.0007404650241951887
0.0007404650241951887
0.0007404761467844309
0.001013738631344762
0.001013726525079255
0.001013726525079255
0.001013738631344762
)

diagonalPBiCGStab:  Solving for Sh2, Initial residual = 0.0006642467292126089, Final residual = 7.501500011391245e-18, No Iterations 3
ExecutionTime = 0.19 s  ClockTime = 0 s

Courant Number mean: 0 max: 0
deltaT = 1
Time = 500

PIMPLE: iteration 1
smoothSolver:  Solving for Ux, Initial residual = 0, Final residual = 0, No Iterations 0
smoothSolver:  Solving for Uy, Initial residual = 0, Final residual = 0, No Iterations 0
GAMG:  Solving for p, Initial residual = 0, Final residual = 0, No Iterations 0
time step continuity errors : sum local = 0, global = 0, cumulative = 0

>>>>>>>>>>>>>>>>>>>>>>>>>>>>>>> A*x=b: (no source term)
b:
16
(
0.0006298422476140603
0.0006298410072953138
0.0006298410072953149
0.00062984224761406
0.0006501739008606574
0.0006501696212113358
0.0006501696212113365
0.0006501739008606574
0.0007407391215784429
0.0007407279974299043
0.0007407279974299043
0.0007407391215784433
0.001014024509440343
0.001014012428379045
0.001014012428379045
0.001014024509440343
)

diagonalPBiCGStab:  Solving for Sh2, Initial residual = 0.0006631422625894506, Final residual = 7.425705346795288e-18, No Iterations 3
ExecutionTime = 0.19 s  ClockTime = 0 s

End

