/*---------------------------------------------------------------------------*\
| =========                 |                                                 |
| \\      /  F ield         | OpenFOAM: The Open Source CFD Toolbox           |
|  \\    /   O peration     | Version:  2212                                  |
|   \\  /    A nd           | Website:  www.openfoam.com                      |
|    \\/     M anipulation  |                                                 |
\*---------------------------------------------------------------------------*/
Build  : _c9081d5d-20230220 OPENFOAM=2212 patch=230110 version=v2212
Arch   : "LSB;label=64;scalar=64"
Exec   : myTestPimpleFoam
Date   : Feb 19 2024
Time   : 20:41:02
Host   : DESKTOP-E2PB5N9
PID    : 16828
I/O    : uncollated
Case   : /home/noreff/works/OpenFOAM-user/v2206/Projects/tests/myPimpleTest
nProcs : 1
trapFpe: Floating point exception trapping enabled (FOAM_SIGFPE).
fileModificationChecking : Monitoring run-time modified files using timeStampMaster (fileModificationSkew 5, maxFileModificationPolls 20)
allowSystemOperations : Allowing user-supplied system call operations

// * * * * * * * * * * * * * * * * * * * * * * * * * * * * * * * * * * * * * //
Create time

Create mesh for time = 0


PIMPLE: Operating solver in PISO mode

Reading field p

Reading field U

Reading/calculating face flux field phi

Selecting incompressible transport model Newtonian
Selecting turbulence model type laminar
Selecting laminar stress model Stokes
No MRF models present

No finite volume options present
Courant Number mean: 0 max: 0
Courant Number mean: 0 max: 0

Starting time loop

Courant Number mean: 0 max: 0
deltaT = 1
Time = 1

PIMPLE: iteration 1
smoothSolver:  Solving for Ux, Initial residual = 0, Final residual = 0, No Iterations 0
smoothSolver:  Solving for Uy, Initial residual = 0, Final residual = 0, No Iterations 0
GAMG:  Solving for p, Initial residual = 0, Final residual = 0, No Iterations 0
time step continuity errors : sum local = 0, global = 0, cumulative = 0

>>>>>>>>>>>>>>>>>>>>>>>>>>>>>>> A*x=b: (yes source term)
b:
16
(
0.0006874999999999997
0.0006874999999999997
0.0006874999999999999
0.0006874999999999996
0.0006874999999999997
0.0006875000000000002
0.0006874999999999997
0.0006874999999999997
0.0006874999999999999
0.0006874999999999999
0.0006874999999999999
0.0006874999999999997
0.0006874999999999996
0.0006874999999999997
0.0006874999999999999
0.0006874999999999996
)

diagonalPBiCGStab:  Solving for Sh2, Initial residual = 1, Final residual = 2.804153999027814e-27, No Iterations 3
ExecutionTime = 0.01 s  ClockTime = 0 s

Courant Number mean: 0 max: 0
deltaT = 1
Time = 2

PIMPLE: iteration 1
smoothSolver:  Solving for Ux, Initial residual = 0, Final residual = 0, No Iterations 0
smoothSolver:  Solving for Uy, Initial residual = 0, Final residual = 0, No Iterations 0
GAMG:  Solving for p, Initial residual = 0, Final residual = 0, No Iterations 0
time step continuity errors : sum local = 0, global = 0, cumulative = 0

>>>>>>>>>>>>>>>>>>>>>>>>>>>>>>> A*x=b: (yes source term)
b:
16
(
0.0007437319799415056
0.0007437230129578857
0.0007437230129578858
0.0007437319799415055
0.0007437230129578857
0.0007437140488254535
0.0007437140488254529
0.0007437230129578857
0.0007437230129578858
0.0007437140488254529
0.0007437140488254529
0.0007437230129578857
0.0007437319799415055
0.0007437230129578857
0.0007437230129578858
0.0007437319799415055
)

diagonalPBiCGStab:  Solving for Sh2, Initial residual = 0.999920051148393, Final residual = 7.481254482428451e-27, No Iterations 3
ExecutionTime = 0.01 s  ClockTime = 0 s

Courant Number mean: 0 max: 0
deltaT = 1
Time = 3

PIMPLE: iteration 1
smoothSolver:  Solving for Ux, Initial residual = 0, Final residual = 0, No Iterations 0
smoothSolver:  Solving for Uy, Initial residual = 0, Final residual = 0, No Iterations 0
GAMG:  Solving for p, Initial residual = 0, Final residual = 0, No Iterations 0
time step continuity errors : sum local = 0, global = 0, cumulative = 0

>>>>>>>>>>>>>>>>>>>>>>>>>>>>>>> A*x=b: (yes source term)
b:
16
(
0.0007999639341404863
0.0007999460259198401
0.0007999460259198401
0.0007999639341404862
0.0007999460259198401
0.0007999281233770638
0.0007999281233770631
0.0007999460259198401
0.0007999460259198401
0.0007999281233770631
0.0007999281233770631
0.0007999460259198401
0.0007999639341404862
0.0007999460259198401
0.0007999460259198401
0.0007999639341404862
)

diagonalPBiCGStab:  Solving for Sh2, Initial residual = 0.9998403445425502, Final residual = 4.393500202821624e-27, No Iterations 3
ExecutionTime = 0.01 s  ClockTime = 0 s

Courant Number mean: 0 max: 0
deltaT = 1
Time = 4

PIMPLE: iteration 1
smoothSolver:  Solving for Ux, Initial residual = 0, Final residual = 0, No Iterations 0
smoothSolver:  Solving for Uy, Initial residual = 0, Final residual = 0, No Iterations 0
GAMG:  Solving for p, Initial residual = 0, Final residual = 0, No Iterations 0
time step continuity errors : sum local = 0, global = 0, cumulative = 0

>>>>>>>>>>>>>>>>>>>>>>>>>>>>>>> A*x=b: (yes source term)
b:
16
(
0.0008561958626708557
0.0008561690388858279
0.0008561690388858279
0.0008561958626708555
0.0008561690388858279
0.0008561422235810111
0.0008561422235810104
0.0008561690388858279
0.0008561690388858279
0.0008561422235810104
0.0008561422235810104
0.0008561690388858279
0.0008561958626708555
0.0008561690388858279
0.0008561690388858279
0.0008561958626708555
)

diagonalPBiCGStab:  Solving for Sh2, Initial residual = 0.9997608794109183, Final residual = 1.805320123395619e-27, No Iterations 3
ExecutionTime = 0.01 s  ClockTime = 0 s

Courant Number mean: 0 max: 0
deltaT = 1
Time = 5

PIMPLE: iteration 1
smoothSolver:  Solving for Ux, Initial residual = 0, Final residual = 0, No Iterations 0
smoothSolver:  Solving for Uy, Initial residual = 0, Final residual = 0, No Iterations 0
GAMG:  Solving for p, Initial residual = 0, Final residual = 0, No Iterations 0
time step continuity errors : sum local = 0, global = 0, cumulative = 0

>>>>>>>>>>>>>>>>>>>>>>>>>>>>>>> A*x=b: (yes source term)
b:
16
(
0.0009124277656063147
0.0009123920518558143
0.0009123920518558143
0.0009124277656063146
0.0009123920518558143
0.0009123563493636876
0.0009123563493636869
0.0009123920518558143
0.0009123920518558143
0.0009123563493636869
0.0009123563493636869
0.0009123920518558143
0.0009124277656063146
0.0009123920518558143
0.0009123920518558143
0.0009124277656063146
)

diagonalPBiCGStab:  Solving for Sh2, Initial residual = 0.9996816549846365, Final residual = 3.037379837617361e-27, No Iterations 3
ExecutionTime = 0.01 s  ClockTime = 0 s

Courant Number mean: 0 max: 0
deltaT = 1
Time = 6

PIMPLE: iteration 1
smoothSolver:  Solving for Ux, Initial residual = 0, Final residual = 0, No Iterations 0
smoothSolver:  Solving for Uy, Initial residual = 0, Final residual = 0, No Iterations 0
GAMG:  Solving for p, Initial residual = 0, Final residual = 0, No Iterations 0
time step continuity errors : sum local = 0, global = 0, cumulative = 0

>>>>>>>>>>>>>>>>>>>>>>>>>>>>>>> A*x=b: (yes source term)
b:
16
(
0.0009686596430203533
0.0009686150648297647
0.0009686150648297649
0.000968659643020353
0.0009686150648297647
0.0009685705006516961
0.0009685705006516952
0.0009686150648297647
0.0009686150648297649
0.0009685705006516952
0.0009685705006516952
0.0009686150648297647
0.000968659643020353
0.0009686150648297647
0.0009686150648297649
0.000968659643020353
)

diagonalPBiCGStab:  Solving for Sh2, Initial residual = 0.9996026704975068, Final residual = 1.761910747717665e-27, No Iterations 3
ExecutionTime = 0.01 s  ClockTime = 0 s

Courant Number mean: 0 max: 0
deltaT = 1
Time = 7

PIMPLE: iteration 1
smoothSolver:  Solving for Ux, Initial residual = 0, Final residual = 0, No Iterations 0
smoothSolver:  Solving for Uy, Initial residual = 0, Final residual = 0, No Iterations 0
GAMG:  Solving for p, Initial residual = 0, Final residual = 0, No Iterations 0
time step continuity errors : sum local = 0, global = 0, cumulative = 0

>>>>>>>>>>>>>>>>>>>>>>>>>>>>>>> A*x=b: (yes source term)
b:
16
(
0.00102489149498625
0.001024838077807645
0.001024838077807645
0.001024891494986249
0.001024838077807645
0.00102478467737185
0.00102478467737185
0.001024838077807645
0.001024838077807645
0.00102478467737185
0.00102478467737185
0.001024838077807645
0.001024891494986249
0.001024838077807645
0.001024838077807645
0.001024891494986249
)

diagonalPBiCGStab:  Solving for Sh2, Initial residual = 0.9995239251859829, Final residual = 9.424863930240494e-28, No Iterations 3
ExecutionTime = 0.01 s  ClockTime = 0 s

Courant Number mean: 0 max: 0
deltaT = 1
Time = 8

PIMPLE: iteration 1
smoothSolver:  Solving for Ux, Initial residual = 0, Final residual = 0, No Iterations 0
smoothSolver:  Solving for Uy, Initial residual = 0, Final residual = 0, No Iterations 0
GAMG:  Solving for p, Initial residual = 0, Final residual = 0, No Iterations 0
time step continuity errors : sum local = 0, global = 0, cumulative = 0

>>>>>>>>>>>>>>>>>>>>>>>>>>>>>>> A*x=b: (yes source term)
b:
16
(
0.001081123321577072
0.001081061090789421
0.001081061090789421
0.001081123321577072
0.001081061090789421
0.001080998879451174
0.001080998879451173
0.001081061090789421
0.001081061090789421
0.001080998879451173
0.001080998879451173
0.001081061090789421
0.001081123321577072
0.001081061090789421
0.001081061090789421
0.001081123321577072
)

diagonalPBiCGStab:  Solving for Sh2, Initial residual = 0.999445418289176, Final residual = 2.266717324997954e-27, No Iterations 3
ExecutionTime = 0.01 s  ClockTime = 0 s

Courant Number mean: 0 max: 0
deltaT = 1
Time = 9

PIMPLE: iteration 1
smoothSolver:  Solving for Ux, Initial residual = 0, Final residual = 0, No Iterations 0
smoothSolver:  Solving for Uy, Initial residual = 0, Final residual = 0, No Iterations 0
GAMG:  Solving for p, Initial residual = 0, Final residual = 0, No Iterations 0
time step continuity errors : sum local = 0, global = 0, cumulative = 0

>>>>>>>>>>>>>>>>>>>>>>>>>>>>>>> A*x=b: (yes source term)
b:
16
(
0.001137355122865679
0.001137284103775058
0.001137284103775059
0.001137355122865678
0.001137284103775058
0.001137213106816899
0.001137213106816898
0.001137284103775058
0.001137284103775059
0.001137213106816898
0.001137213106816898
0.001137284103775058
0.001137355122865678
0.001137284103775058
0.001137284103775059
0.001137355122865678
)

diagonalPBiCGStab:  Solving for Sh2, Initial residual = 0.9993671490488372, Final residual = 2.223426283271066e-27, No Iterations 3
ExecutionTime = 0.01 s  ClockTime = 0 s

Courant Number mean: 0 max: 0
deltaT = 1
Time = 10

PIMPLE: iteration 1
smoothSolver:  Solving for Ux, Initial residual = 0, Final residual = 0, No Iterations 0
smoothSolver:  Solving for Uy, Initial residual = 0, Final residual = 0, No Iterations 0
GAMG:  Solving for p, Initial residual = 0, Final residual = 0, No Iterations 0
time step continuity errors : sum local = 0, global = 0, cumulative = 0

>>>>>>>>>>>>>>>>>>>>>>>>>>>>>>> A*x=b: (yes source term)
b:
16
(
0.001193586898924719
0.001193507116764524
0.001193507116764525
0.001193586898924718
0.001193507116764524
0.001193427359396468
0.001193427359396467
0.001193507116764524
0.001193507116764525
0.001193427359396467
0.001193427359396467
0.001193507116764524
0.001193586898924718
0.001193507116764524
0.001193507116764525
0.001193586898924718
)

diagonalPBiCGStab:  Solving for Sh2, Initial residual = 0.9992891167093184, Final residual = 1.311780663752858e-27, No Iterations 3
ExecutionTime = 0.01 s  ClockTime = 0 s

Courant Number mean: 0 max: 0
deltaT = 1
Time = 11

PIMPLE: iteration 1
smoothSolver:  Solving for Ux, Initial residual = 0, Final residual = 0, No Iterations 0
smoothSolver:  Solving for Uy, Initial residual = 0, Final residual = 0, No Iterations 0
GAMG:  Solving for p, Initial residual = 0, Final residual = 0, No Iterations 0
time step continuity errors : sum local = 0, global = 0, cumulative = 0

>>>>>>>>>>>>>>>>>>>>>>>>>>>>>>> A*x=b: (yes source term)
b:
16
(
0.001249818649826632
0.001249730129757785
0.001249730129757785
0.001249818649826632
0.001249730129757785
0.001249641637117531
0.00124964163711753
0.001249730129757785
0.001249730129757785
0.00124964163711753
0.00124964163711753
0.001249730129757785
0.001249818649826632
0.001249730129757785
0.001249730129757785
0.001249818649826632
)

diagonalPBiCGStab:  Solving for Sh2, Initial residual = 0.9992113205176174, Final residual = 1.477947650269887e-27, No Iterations 3
ExecutionTime = 0.01 s  ClockTime = 0 s

Courant Number mean: 0 max: 0
deltaT = 1
Time = 12

PIMPLE: iteration 1
smoothSolver:  Solving for Ux, Initial residual = 0, Final residual = 0, No Iterations 0
smoothSolver:  Solving for Uy, Initial residual = 0, Final residual = 0, No Iterations 0
GAMG:  Solving for p, Initial residual = 0, Final residual = 0, No Iterations 0
time step continuity errors : sum local = 0, global = 0, cumulative = 0

>>>>>>>>>>>>>>>>>>>>>>>>>>>>>>> A*x=b: (yes source term)
b:
16
(
0.001306050375643651
0.001305953142754807
0.001305953142754807
0.00130605037564365
0.001305953142754807
0.001305855939907945
0.001305855939907943
0.001305953142754807
0.001305953142754807
0.001305855939907943
0.001305855939907943
0.001305953142754807
0.00130605037564365
0.001305953142754807
0.001305953142754807
0.00130605037564365
)

diagonalPBiCGStab:  Solving for Sh2, Initial residual = 0.9991337597233196, Final residual = 2.173645933067738e-27, No Iterations 3
ExecutionTime = 0.01 s  ClockTime = 0 s

Courant Number mean: 0 max: 0
deltaT = 1
Time = 13

PIMPLE: iteration 1
smoothSolver:  Solving for Ux, Initial residual = 0, Final residual = 0, No Iterations 0
smoothSolver:  Solving for Uy, Initial residual = 0, Final residual = 0, No Iterations 0
GAMG:  Solving for p, Initial residual = 0, Final residual = 0, No Iterations 0
time step continuity errors : sum local = 0, global = 0, cumulative = 0

>>>>>>>>>>>>>>>>>>>>>>>>>>>>>>> A*x=b: (yes source term)
b:
16
(
0.0013622820764478
0.001362176155755557
0.001362176155755558
0.001362282076447799
0.001362176155755557
0.001362070267695772
0.001362070267695772
0.001362176155755557
0.001362176155755558
0.001362070267695771
0.001362070267695771
0.001362176155755557
0.001362282076447799
0.001362176155755557
0.001362176155755558
0.001362282076447799
)

diagonalPBiCGStab:  Solving for Sh2, Initial residual = 0.9990564335786123, Final residual = 2.622950434769006e-27, No Iterations 3
ExecutionTime = 0.01 s  ClockTime = 0 s

Courant Number mean: 0 max: 0
deltaT = 1
Time = 14

PIMPLE: iteration 1
smoothSolver:  Solving for Ux, Initial residual = 0, Final residual = 0, No Iterations 0
smoothSolver:  Solving for Uy, Initial residual = 0, Final residual = 0, No Iterations 0
GAMG:  Solving for p, Initial residual = 0, Final residual = 0, No Iterations 0
time step continuity errors : sum local = 0, global = 0, cumulative = 0

>>>>>>>>>>>>>>>>>>>>>>>>>>>>>>> A*x=b: (yes source term)
b:
16
(
0.001418513752310896
0.001418399168760003
0.001418399168760004
0.001418513752310896
0.001418399168760003
0.001418284620409286
0.001418284620409285
0.001418399168760003
0.001418399168760004
0.001418284620409284
0.001418284620409284
0.001418399168760003
0.001418513752310896
0.001418399168760003
0.001418399168760004
0.001418513752310896
)

diagonalPBiCGStab:  Solving for Sh2, Initial residual = 0.9989793413382657, Final residual = 4.112665932292709e-27, No Iterations 3
ExecutionTime = 0.01 s  ClockTime = 0 s

Courant Number mean: 0 max: 0
deltaT = 1
Time = 15

PIMPLE: iteration 1
smoothSolver:  Solving for Ux, Initial residual = 0, Final residual = 0, No Iterations 0
smoothSolver:  Solving for Uy, Initial residual = 0, Final residual = 0, No Iterations 0
GAMG:  Solving for p, Initial residual = 0, Final residual = 0, No Iterations 0
time step continuity errors : sum local = 0, global = 0, cumulative = 0

>>>>>>>>>>>>>>>>>>>>>>>>>>>>>>> A*x=b: (yes source term)
b:
16
(
0.001474745403304554
0.001474622181768113
0.001474622181768113
0.001474745403304553
0.001474622181768113
0.001474498997976962
0.00147449899797696
0.001474622181768113
0.001474622181768113
0.00147449899797696
0.00147449899797696
0.001474622181768113
0.001474745403304553
0.001474622181768113
0.001474622181768113
0.001474745403304553
)

diagonalPBiCGStab:  Solving for Sh2, Initial residual = 0.9989024822596261, Final residual = 1.908425672489699e-27, No Iterations 3
ExecutionTime = 0.01 s  ClockTime = 0 s

Courant Number mean: 0 max: 0
deltaT = 1
Time = 16

PIMPLE: iteration 1
smoothSolver:  Solving for Ux, Initial residual = 0, Final residual = 0, No Iterations 0
smoothSolver:  Solving for Uy, Initial residual = 0, Final residual = 0, No Iterations 0
GAMG:  Solving for p, Initial residual = 0, Final residual = 0, No Iterations 0
time step continuity errors : sum local = 0, global = 0, cumulative = 0

>>>>>>>>>>>>>>>>>>>>>>>>>>>>>>> A*x=b: (yes source term)
b:
16
(
0.001530977029500176
0.001530845194779854
0.001530845194779854
0.001530977029500176
0.001530845194779854
0.00153071340032748
0.001530713400327479
0.001530845194779854
0.001530845194779854
0.001530713400327478
0.001530713400327478
0.001530845194779854
0.001530977029500176
0.001530845194779854
0.001530845194779854
0.001530977029500176
)

diagonalPBiCGStab:  Solving for Sh2, Initial residual = 0.9988258556025966, Final residual = 7.343797341018102e-27, No Iterations 3
ExecutionTime = 0.01 s  ClockTime = 0 s

Courant Number mean: 0 max: 0
deltaT = 1
Time = 17

PIMPLE: iteration 1
smoothSolver:  Solving for Ux, Initial residual = 0, Final residual = 0, No Iterations 0
smoothSolver:  Solving for Uy, Initial residual = 0, Final residual = 0, No Iterations 0
GAMG:  Solving for p, Initial residual = 0, Final residual = 0, No Iterations 0
time step continuity errors : sum local = 0, global = 0, cumulative = 0

>>>>>>>>>>>>>>>>>>>>>>>>>>>>>>> A*x=b: (yes source term)
b:
16
(
0.001587208630968966
0.001587068207795193
0.001587068207795193
0.001587208630968965
0.001587068207795193
0.001586927827389729
0.001586927827389727
0.001587068207795193
0.001587068207795193
0.001586927827389727
0.001586927827389727
0.001587068207795193
0.001587208630968965
0.001587068207795193
0.001587068207795193
0.001587208630968965
)

diagonalPBiCGStab:  Solving for Sh2, Initial residual = 0.9987494606296593, Final residual = 6.463032217041988e-27, No Iterations 3
ExecutionTime = 0.01 s  ClockTime = 0 s

Courant Number mean: 0 max: 0
deltaT = 1
Time = 18

PIMPLE: iteration 1
smoothSolver:  Solving for Ux, Initial residual = 0, Final residual = 0, No Iterations 0
smoothSolver:  Solving for Uy, Initial residual = 0, Final residual = 0, No Iterations 0
GAMG:  Solving for p, Initial residual = 0, Final residual = 0, No Iterations 0
time step continuity errors : sum local = 0, global = 0, cumulative = 0

>>>>>>>>>>>>>>>>>>>>>>>>>>>>>>> A*x=b: (yes source term)
b:
16
(
0.001643440207781918
0.001643291220814099
0.001643291220814099
0.001643440207781918
0.001643291220814099
0.001643142279092796
0.001643142279092794
0.001643291220814099
0.001643291220814099
0.001643142279092794
0.001643142279092794
0.001643291220814099
0.001643440207781918
0.001643291220814099
0.001643291220814099
0.001643440207781918
)

diagonalPBiCGStab:  Solving for Sh2, Initial residual = 0.9986732966058003, Final residual = 3.342056063936036e-27, No Iterations 3
ExecutionTime = 0.01 s  ClockTime = 0 s

Courant Number mean: 0 max: 0
deltaT = 1
Time = 19

PIMPLE: iteration 1
smoothSolver:  Solving for Ux, Initial residual = 0, Final residual = 0, No Iterations 0
smoothSolver:  Solving for Uy, Initial residual = 0, Final residual = 0, No Iterations 0
GAMG:  Solving for p, Initial residual = 0, Final residual = 0, No Iterations 0
time step continuity errors : sum local = 0, global = 0, cumulative = 0

>>>>>>>>>>>>>>>>>>>>>>>>>>>>>>> A*x=b: (yes source term)
b:
16
(
0.001699671760009826
0.00169951423383654
0.00169951423383654
0.001699671760009826
0.00169951423383654
0.001699356755365976
0.001699356755365975
0.00169951423383654
0.00169951423383654
0.001699356755365974
0.001699356755365974
0.00169951423383654
0.001699671760009826
0.00169951423383654
0.00169951423383654
0.001699671760009826
)

diagonalPBiCGStab:  Solving for Sh2, Initial residual = 0.9985973627985806, Final residual = 1.390878897050814e-27, No Iterations 3
ExecutionTime = 0.01 s  ClockTime = 0 s

Courant Number mean: 0 max: 0
deltaT = 1
Time = 20

PIMPLE: iteration 1
smoothSolver:  Solving for Ux, Initial residual = 0, Final residual = 0, No Iterations 0
smoothSolver:  Solving for Uy, Initial residual = 0, Final residual = 0, No Iterations 0
GAMG:  Solving for p, Initial residual = 0, Final residual = 0, No Iterations 0
time step continuity errors : sum local = 0, global = 0, cumulative = 0

>>>>>>>>>>>>>>>>>>>>>>>>>>>>>>> A*x=b: (yes source term)
b:
16
(
0.001755903287723279
0.001755737246862485
0.001755737246862485
0.001755903287723279
0.001755737246862485
0.001755571256138766
0.001755571256138765
0.001755737246862485
0.001755737246862485
0.001755571256138764
0.001755571256138764
0.001755737246862485
0.001755903287723279
0.001755737246862485
0.001755737246862485
0.001755903287723279
)

diagonalPBiCGStab:  Solving for Sh2, Initial residual = 0.9985216584780647, Final residual = 1.236926832635532e-27, No Iterations 3
ExecutionTime = 0.01 s  ClockTime = 0 s

Courant Number mean: 0 max: 0
deltaT = 1
Time = 21

PIMPLE: iteration 1
smoothSolver:  Solving for Ux, Initial residual = 0, Final residual = 0, No Iterations 0
smoothSolver:  Solving for Uy, Initial residual = 0, Final residual = 0, No Iterations 0
GAMG:  Solving for p, Initial residual = 0, Final residual = 0, No Iterations 0
time step continuity errors : sum local = 0, global = 0, cumulative = 0

>>>>>>>>>>>>>>>>>>>>>>>>>>>>>>> A*x=b: (yes source term)
b:
16
(
0.001812134790992663
0.001811960259891903
0.001811960259891903
0.001812134790992663
0.001811960259891903
0.001811785781340863
0.001811785781340862
0.001811960259891903
0.001811960259891903
0.001811785781340862
0.001811785781340862
0.001811960259891903
0.001812134790992663
0.001811960259891903
0.001811960259891903
0.001812134790992663
)

diagonalPBiCGStab:  Solving for Sh2, Initial residual = 0.9984461829168323, Final residual = 1.390668328792756e-27, No Iterations 3
ExecutionTime = 0.01 s  ClockTime = 0 s

Courant Number mean: 0 max: 0
deltaT = 1
Time = 22

PIMPLE: iteration 1
smoothSolver:  Solving for Ux, Initial residual = 0, Final residual = 0, No Iterations 0
smoothSolver:  Solving for Uy, Initial residual = 0, Final residual = 0, No Iterations 0
GAMG:  Solving for p, Initial residual = 0, Final residual = 0, No Iterations 0
time step continuity errors : sum local = 0, global = 0, cumulative = 0

>>>>>>>>>>>>>>>>>>>>>>>>>>>>>>> A*x=b: (yes source term)
b:
16
(
0.001868366269888162
0.001868183272924763
0.001868183272924763
0.001868366269888161
0.001868183272924763
0.001868000330902169
0.001868000330902168
0.001868183272924763
0.001868183272924763
0.001868000330902168
0.001868000330902168
0.001868183272924763
0.001868366269888161
0.001868183272924763
0.001868183272924763
0.001868366269888161
)

diagonalPBiCGStab:  Solving for Sh2, Initial residual = 0.9983709353899776, Final residual = 1.765892613699466e-27, No Iterations 3
ExecutionTime = 0.01 s  ClockTime = 0 s

Courant Number mean: 0 max: 0
deltaT = 1
Time = 23

PIMPLE: iteration 1
smoothSolver:  Solving for Ux, Initial residual = 0, Final residual = 0, No Iterations 0
smoothSolver:  Solving for Uy, Initial residual = 0, Final residual = 0, No Iterations 0
GAMG:  Solving for p, Initial residual = 0, Final residual = 0, No Iterations 0
time step continuity errors : sum local = 0, global = 0, cumulative = 0

>>>>>>>>>>>>>>>>>>>>>>>>>>>>>>> A*x=b: (yes source term)
b:
16
(
0.001924597724479758
0.001924406285961032
0.001924406285961032
0.001924597724479758
0.001924406285961032
0.001924214904752785
0.001924214904752784
0.001924406285961032
0.001924406285961032
0.001924214904752783
0.001924214904752783
0.001924406285961032
0.001924597724479758
0.001924406285961032
0.001924406285961032
0.001924597724479758
)

diagonalPBiCGStab:  Solving for Sh2, Initial residual = 0.9982959151750898, Final residual = 1.285866979989081e-27, No Iterations 3
ExecutionTime = 0.01 s  ClockTime = 0 s

Courant Number mean: 0 max: 0
deltaT = 1
Time = 24

PIMPLE: iteration 1
smoothSolver:  Solving for Ux, Initial residual = 0, Final residual = 0, No Iterations 0
smoothSolver:  Solving for Uy, Initial residual = 0, Final residual = 0, No Iterations 0
GAMG:  Solving for p, Initial residual = 0, Final residual = 0, No Iterations 0
time step continuity errors : sum local = 0, global = 0, cumulative = 0

>>>>>>>>>>>>>>>>>>>>>>>>>>>>>>> A*x=b: (yes source term)
b:
16
(
0.001980829154837234
0.001980629299000683
0.001980629299000683
0.001980829154837234
0.001980629299000683
0.001980429502823012
0.00198042950282301
0.001980629299000683
0.001980629299000683
0.00198042950282301
0.00198042950282301
0.001980629299000683
0.001980829154837234
0.001980629299000683
0.001980629299000683
0.001980829154837234
)

diagonalPBiCGStab:  Solving for Sh2, Initial residual = 0.9982211215522293, Final residual = 3.008334179578653e-27, No Iterations 3
ExecutionTime = 0.01 s  ClockTime = 0 s

Courant Number mean: 0 max: 0
deltaT = 1
Time = 25

PIMPLE: iteration 1
smoothSolver:  Solving for Ux, Initial residual = 0, Final residual = 0, No Iterations 0
smoothSolver:  Solving for Uy, Initial residual = 0, Final residual = 0, No Iterations 0
GAMG:  Solving for p, Initial residual = 0, Final residual = 0, No Iterations 0
time step continuity errors : sum local = 0, global = 0, cumulative = 0

>>>>>>>>>>>>>>>>>>>>>>>>>>>>>>> A*x=b: (yes source term)
b:
16
(
0.002037060561030171
0.002036852312043683
0.002036852312043683
0.002037060561030171
0.002036852312043683
0.002036644125043352
0.002036644125043351
0.002036852312043683
0.002036852312043683
0.002036644125043351
0.002036644125043351
0.002036852312043683
0.002037060561030171
0.002036852312043683
0.002036852312043683
0.002037060561030171
)

diagonalPBiCGStab:  Solving for Sh2, Initial residual = 0.9981465538039406, Final residual = 1.347190124070046e-27, No Iterations 3
ExecutionTime = 0.03 s  ClockTime = 0 s

Courant Number mean: 0 max: 0
deltaT = 1
Time = 26

PIMPLE: iteration 1
smoothSolver:  Solving for Ux, Initial residual = 0, Final residual = 0, No Iterations 0
smoothSolver:  Solving for Uy, Initial residual = 0, Final residual = 0, No Iterations 0
GAMG:  Solving for p, Initial residual = 0, Final residual = 0, No Iterations 0
time step continuity errors : sum local = 0, global = 0, cumulative = 0

>>>>>>>>>>>>>>>>>>>>>>>>>>>>>>> A*x=b: (yes source term)
b:
16
(
0.00209329194312795
0.002093075325090002
0.002093075325090002
0.00209329194312795
0.002093075325090002
0.002092858771344506
0.002092858771344505
0.002093075325090002
0.002093075325090002
0.002092858771344505
0.002092858771344505
0.002093075325090002
0.00209329194312795
0.002093075325090002
0.002093075325090002
0.00209329194312795
)

diagonalPBiCGStab:  Solving for Sh2, Initial residual = 0.9980722112152409, Final residual = 2.706481758802215e-27, No Iterations 3
ExecutionTime = 0.03 s  ClockTime = 0 s

Courant Number mean: 0 max: 0
deltaT = 1
Time = 27

PIMPLE: iteration 1
smoothSolver:  Solving for Ux, Initial residual = 0, Final residual = 0, No Iterations 0
smoothSolver:  Solving for Uy, Initial residual = 0, Final residual = 0, No Iterations 0
GAMG:  Solving for p, Initial residual = 0, Final residual = 0, No Iterations 0
time step continuity errors : sum local = 0, global = 0, cumulative = 0

>>>>>>>>>>>>>>>>>>>>>>>>>>>>>>> A*x=b: (yes source term)
b:
16
(
0.002149523301199754
0.002149298338139611
0.002149298338139611
0.002149523301199754
0.002149298338139611
0.002149073441657375
0.002149073441657373
0.002149298338139611
0.002149298338139611
0.002149073441657373
0.002149073441657373
0.002149298338139611
0.002149523301199754
0.002149298338139611
0.002149298338139611
0.002149523301199754
)

diagonalPBiCGStab:  Solving for Sh2, Initial residual = 0.9979980930735997, Final residual = 1.107114861249673e-27, No Iterations 3
ExecutionTime = 0.03 s  ClockTime = 0 s

Courant Number mean: 0 max: 0
deltaT = 1
Time = 28

PIMPLE: iteration 1
smoothSolver:  Solving for Ux, Initial residual = 0, Final residual = 0, No Iterations 0
smoothSolver:  Solving for Uy, Initial residual = 0, Final residual = 0, No Iterations 0
GAMG:  Solving for p, Initial residual = 0, Final residual = 0, No Iterations 0
time step continuity errors : sum local = 0, global = 0, cumulative = 0

>>>>>>>>>>>>>>>>>>>>>>>>>>>>>>> A*x=b: (yes source term)
b:
16
(
0.002205754635314566
0.00220552135119248
0.002205521351192479
0.002205754635314566
0.00220552135119248
0.002205288135913057
0.002205288135913055
0.00220552135119248
0.002205521351192479
0.002205288135913055
0.002205288135913055
0.00220552135119248
0.002205754635314566
0.00220552135119248
0.002205521351192479
0.002205754635314566
)

diagonalPBiCGStab:  Solving for Sh2, Initial residual = 0.9979241986689332, Final residual = 9.717288679626525e-28, No Iterations 3
ExecutionTime = 0.03 s  ClockTime = 0 s

Courant Number mean: 0 max: 0
deltaT = 1
Time = 29

PIMPLE: iteration 1
smoothSolver:  Solving for Ux, Initial residual = 0, Final residual = 0, No Iterations 0
smoothSolver:  Solving for Uy, Initial residual = 0, Final residual = 0, No Iterations 0
GAMG:  Solving for p, Initial residual = 0, Final residual = 0, No Iterations 0
time step continuity errors : sum local = 0, global = 0, cumulative = 0

>>>>>>>>>>>>>>>>>>>>>>>>>>>>>>> A*x=b: (yes source term)
b:
16
(
0.002261985945541171
0.002261744364248579
0.002261744364248578
0.002261985945541171
0.002261744364248579
0.002261502854042847
0.002261502854042845
0.002261744364248579
0.002261744364248578
0.002261502854042845
0.002261502854042845
0.002261744364248579
0.002261985945541171
0.002261744364248579
0.002261744364248578
0.002261985945541171
)

diagonalPBiCGStab:  Solving for Sh2, Initial residual = 0.9978505272935693, Final residual = 1.415052567822809e-26, No Iterations 3
ExecutionTime = 0.03 s  ClockTime = 0 s

Courant Number mean: 0 max: 0
deltaT = 1
Time = 30

PIMPLE: iteration 1
smoothSolver:  Solving for Ux, Initial residual = 0, Final residual = 0, No Iterations 0
smoothSolver:  Solving for Uy, Initial residual = 0, Final residual = 0, No Iterations 0
GAMG:  Solving for p, Initial residual = 0, Final residual = 0, No Iterations 0
time step continuity errors : sum local = 0, global = 0, cumulative = 0

>>>>>>>>>>>>>>>>>>>>>>>>>>>>>>> A*x=b: (yes source term)
b:
16
(
0.002318217231948156
0.002317967377307878
0.002317967377307877
0.002318217231948156
0.002317967377307878
0.002317717595978237
0.002317717595978236
0.002317967377307878
0.002317967377307877
0.002317717595978236
0.002317717595978236
0.002317967377307878
0.002318217231948156
0.002317967377307878
0.002317967377307877
0.002318217231948156
)

diagonalPBiCGStab:  Solving for Sh2, Initial residual = 0.9977770782423244, Final residual = 2.016962530949485e-27, No Iterations 3
ExecutionTime = 0.03 s  ClockTime = 0 s

Courant Number mean: 0 max: 0
deltaT = 1
Time = 31

PIMPLE: iteration 1
smoothSolver:  Solving for Ux, Initial residual = 0, Final residual = 0, No Iterations 0
smoothSolver:  Solving for Uy, Initial residual = 0, Final residual = 0, No Iterations 0
GAMG:  Solving for p, Initial residual = 0, Final residual = 0, No Iterations 0
time step continuity errors : sum local = 0, global = 0, cumulative = 0

>>>>>>>>>>>>>>>>>>>>>>>>>>>>>>> A*x=b: (yes source term)
b:
16
(
0.002374448494603914
0.002374190390370348
0.002374190390370348
0.002374448494603914
0.002374190390370348
0.002373932361650918
0.002373932361650917
0.002374190390370348
0.002374190390370348
0.002373932361650917
0.002373932361650917
0.002374190390370348
0.002374448494603914
0.002374190390370348
0.002374190390370348
0.002374448494603914
)

diagonalPBiCGStab:  Solving for Sh2, Initial residual = 0.9977038508123799, Final residual = 1.559956828955431e-26, No Iterations 3
ExecutionTime = 0.03 s  ClockTime = 0 s

Courant Number mean: 0 max: 0
deltaT = 1
Time = 32

PIMPLE: iteration 1
smoothSolver:  Solving for Ux, Initial residual = 0, Final residual = 0, No Iterations 0
smoothSolver:  Solving for Uy, Initial residual = 0, Final residual = 0, No Iterations 0
GAMG:  Solving for p, Initial residual = 0, Final residual = 0, No Iterations 0
time step continuity errors : sum local = 0, global = 0, cumulative = 0

>>>>>>>>>>>>>>>>>>>>>>>>>>>>>>> A*x=b: (yes source term)
b:
16
(
0.002430679733576637
0.002430413403435961
0.00243041340343596
0.002430679733576638
0.002430413403435961
0.002430147150992776
0.002430147150992775
0.002430413403435961
0.00243041340343596
0.002430147150992774
0.002430147150992774
0.002430413403435961
0.002430679733576638
0.002430413403435961
0.00243041340343596
0.002430679733576638
)

diagonalPBiCGStab:  Solving for Sh2, Initial residual = 0.9976308443033389, Final residual = 3.793547234794149e-27, No Iterations 3
ExecutionTime = 0.03 s  ClockTime = 0 s

Courant Number mean: 0 max: 0
deltaT = 1
Time = 33

PIMPLE: iteration 1
smoothSolver:  Solving for Ux, Initial residual = 0, Final residual = 0, No Iterations 0
smoothSolver:  Solving for Uy, Initial residual = 0, Final residual = 0, No Iterations 0
GAMG:  Solving for p, Initial residual = 0, Final residual = 0, No Iterations 0
time step continuity errors : sum local = 0, global = 0, cumulative = 0

>>>>>>>>>>>>>>>>>>>>>>>>>>>>>>> A*x=b: (yes source term)
b:
16
(
0.002486910948934325
0.002486636416504688
0.002486636416504687
0.002486910948934325
0.002486636416504688
0.002486361963935891
0.002486361963935889
0.002486636416504688
0.002486636416504687
0.002486361963935889
0.002486361963935889
0.002486636416504688
0.002486910948934325
0.002486636416504688
0.002486636416504687
0.002486910948934325
)

diagonalPBiCGStab:  Solving for Sh2, Initial residual = 0.9975580580172119, Final residual = 1.31565620522505e-27, No Iterations 3
ExecutionTime = 0.03 s  ClockTime = 0 s

Courant Number mean: 0 max: 0
deltaT = 1
Time = 34

PIMPLE: iteration 1
smoothSolver:  Solving for Ux, Initial residual = 0, Final residual = 0, No Iterations 0
smoothSolver:  Solving for Uy, Initial residual = 0, Final residual = 0, No Iterations 0
GAMG:  Solving for p, Initial residual = 0, Final residual = 0, No Iterations 0
time step continuity errors : sum local = 0, global = 0, cumulative = 0

>>>>>>>>>>>>>>>>>>>>>>>>>>>>>>> A*x=b: (yes source term)
b:
16
(
0.002543142140744781
0.0025428594295765
0.002542859429576499
0.002543142140744781
0.0025428594295765
0.002542576800412538
0.002542576800412537
0.0025428594295765
0.002542859429576499
0.002542576800412536
0.002542576800412536
0.0025428594295765
0.002543142140744781
0.0025428594295765
0.002542859429576499
0.002543142140744781
)

diagonalPBiCGStab:  Solving for Sh2, Initial residual = 0.9974854912584189, Final residual = 3.368818473072338e-27, No Iterations 3
ExecutionTime = 0.03 s  ClockTime = 0 s

Courant Number mean: 0 max: 0
deltaT = 1
Time = 35

PIMPLE: iteration 1
smoothSolver:  Solving for Ux, Initial residual = 0, Final residual = 0, No Iterations 0
smoothSolver:  Solving for Uy, Initial residual = 0, Final residual = 0, No Iterations 0
GAMG:  Solving for p, Initial residual = 0, Final residual = 0, No Iterations 0
time step continuity errors : sum local = 0, global = 0, cumulative = 0

>>>>>>>>>>>>>>>>>>>>>>>>>>>>>>> A*x=b: (yes source term)
b:
16
(
0.002599373309075613
0.002599082442651369
0.002599082442651368
0.002599373309075614
0.002599082442651369
0.002598791660355187
0.002598791660355186
0.002599082442651369
0.002599082442651368
0.002598791660355186
0.002598791660355186
0.002599082442651369
0.002599373309075614
0.002599082442651369
0.002599082442651368
0.002599373309075614
)

diagonalPBiCGStab:  Solving for Sh2, Initial residual = 0.997413143333702, Final residual = 1.272435848998579e-27, No Iterations 3
ExecutionTime = 0.03 s  ClockTime = 0 s

Courant Number mean: 0 max: 0
deltaT = 1
Time = 36

PIMPLE: iteration 1
smoothSolver:  Solving for Ux, Initial residual = 0, Final residual = 0, No Iterations 0
smoothSolver:  Solving for Uy, Initial residual = 0, Final residual = 0, No Iterations 0
GAMG:  Solving for p, Initial residual = 0, Final residual = 0, No Iterations 0
time step continuity errors : sum local = 0, global = 0, cumulative = 0

>>>>>>>>>>>>>>>>>>>>>>>>>>>>>>> A*x=b: (yes source term)
b:
16
(
0.002655604453994236
0.002655305455729266
0.002655305455729265
0.002655604453994237
0.002655305455729266
0.002655006543696503
0.002655006543696502
0.002655305455729266
0.002655305455729265
0.002655006543696502
0.002655006543696502
0.002655305455729266
0.002655604453994237
0.002655305455729266
0.002655305455729265
0.002655604453994237
)

diagonalPBiCGStab:  Solving for Sh2, Initial residual = 0.9973410135522516, Final residual = 2.821284145758405e-27, No Iterations 3
ExecutionTime = 0.03 s  ClockTime = 0 s

Courant Number mean: 0 max: 0
deltaT = 1
Time = 37

PIMPLE: iteration 1
smoothSolver:  Solving for Ux, Initial residual = 0, Final residual = 0, No Iterations 0
smoothSolver:  Solving for Uy, Initial residual = 0, Final residual = 0, No Iterations 0
GAMG:  Solving for p, Initial residual = 0, Final residual = 0, No Iterations 0
time step continuity errors : sum local = 0, global = 0, cumulative = 0

>>>>>>>>>>>>>>>>>>>>>>>>>>>>>>> A*x=b: (yes source term)
b:
16
(
0.00271183557556787
0.002711528468810164
0.002711528468810163
0.00271183557556787
0.002711528468810164
0.002711221450369342
0.002711221450369341
0.002711528468810164
0.002711528468810163
0.002711221450369341
0.002711221450369341
0.002711528468810164
0.00271183557556787
0.002711528468810164
0.002711528468810163
0.00271183557556787
)

diagonalPBiCGStab:  Solving for Sh2, Initial residual = 0.9972691012255552, Final residual = 1.24459443518126e-26, No Iterations 3
ExecutionTime = 0.03 s  ClockTime = 0 s

Courant Number mean: 0 max: 0
deltaT = 1
Time = 38

PIMPLE: iteration 1
smoothSolver:  Solving for Ux, Initial residual = 0, Final residual = 0, No Iterations 0
smoothSolver:  Solving for Uy, Initial residual = 0, Final residual = 0, No Iterations 0
GAMG:  Solving for p, Initial residual = 0, Final residual = 0, No Iterations 0
time step continuity errors : sum local = 0, global = 0, cumulative = 0

>>>>>>>>>>>>>>>>>>>>>>>>>>>>>>> A*x=b: (yes source term)
b:
16
(
0.002768066673863542
0.002767751481894034
0.002767751481894034
0.002768066673863544
0.002767751481894034
0.002767436380306754
0.002767436380306753
0.002767751481894034
0.002767751481894034
0.002767436380306753
0.002767436380306753
0.002767751481894034
0.002768066673863544
0.002767751481894034
0.002767751481894034
0.002768066673863544
)

diagonalPBiCGStab:  Solving for Sh2, Initial residual = 0.997197405667499, Final residual = 1.149246554673706e-27, No Iterations 3
ExecutionTime = 0.03 s  ClockTime = 0 s

Courant Number mean: 0 max: 0
deltaT = 1
Time = 39

PIMPLE: iteration 1
smoothSolver:  Solving for Ux, Initial residual = 0, Final residual = 0, No Iterations 0
smoothSolver:  Solving for Uy, Initial residual = 0, Final residual = 0, No Iterations 0
GAMG:  Solving for p, Initial residual = 0, Final residual = 0, No Iterations 0
time step continuity errors : sum local = 0, global = 0, cumulative = 0

>>>>>>>>>>>>>>>>>>>>>>>>>>>>>>> A*x=b: (yes source term)
b:
16
(
0.00282429774894809
0.00282397449498085
0.002823974494980849
0.002824297748948091
0.00282397449498085
0.00282365133344198
0.002823651333441979
0.00282397449498085
0.002823974494980849
0.002823651333441979
0.002823651333441979
0.00282397449498085
0.002824297748948091
0.00282397449498085
0.002823974494980849
0.002824297748948091
)

diagonalPBiCGStab:  Solving for Sh2, Initial residual = 0.9971259261942709, Final residual = 7.988841867062755e-28, No Iterations 3
ExecutionTime = 0.03 s  ClockTime = 0 s

Courant Number mean: 0 max: 0
deltaT = 1
Time = 40

PIMPLE: iteration 1
smoothSolver:  Solving for Ux, Initial residual = 0, Final residual = 0, No Iterations 0
smoothSolver:  Solving for Uy, Initial residual = 0, Final residual = 0, No Iterations 0
GAMG:  Solving for p, Initial residual = 0, Final residual = 0, No Iterations 0
time step continuity errors : sum local = 0, global = 0, cumulative = 0

>>>>>>>>>>>>>>>>>>>>>>>>>>>>>>> A*x=b: (yes source term)
b:
16
(
0.002880528800888155
0.002880197508070583
0.002880197508070582
0.002880528800888156
0.002880197508070583
0.002879866309708452
0.002879866309708451
0.002880197508070583
0.002880197508070582
0.002879866309708451
0.002879866309708451
0.002880197508070583
0.002880528800888156
0.002880197508070583
0.002880197508070582
0.002880528800888156
)

diagonalPBiCGStab:  Solving for Sh2, Initial residual = 0.9970546621244351, Final residual = 1.345716406927425e-27, No Iterations 3
ExecutionTime = 0.03 s  ClockTime = 0 s

Courant Number mean: 0 max: 0
deltaT = 1
Time = 41

PIMPLE: iteration 1
smoothSolver:  Solving for Ux, Initial residual = 0, Final residual = 0, No Iterations 0
smoothSolver:  Solving for Uy, Initial residual = 0, Final residual = 0, No Iterations 0
GAMG:  Solving for p, Initial residual = 0, Final residual = 0, No Iterations 0
time step continuity errors : sum local = 0, global = 0, cumulative = 0

>>>>>>>>>>>>>>>>>>>>>>>>>>>>>>> A*x=b: (yes source term)
b:
16
(
0.002936759829750188
0.002936420521163206
0.002936420521163205
0.002936759829750189
0.002936420521163206
0.002936081309039796
0.002936081309039795
0.002936420521163206
0.002936420521163205
0.002936081309039795
0.002936081309039795
0.002936420521163206
0.002936759829750189
0.002936420521163206
0.002936420521163205
0.002936759829750189
)

diagonalPBiCGStab:  Solving for Sh2, Initial residual = 0.996983612778874, Final residual = 1.450075072524007e-27, No Iterations 3
ExecutionTime = 0.03 s  ClockTime = 0 s

Courant Number mean: 0 max: 0
deltaT = 1
Time = 42

PIMPLE: iteration 1
smoothSolver:  Solving for Ux, Initial residual = 0, Final residual = 0, No Iterations 0
smoothSolver:  Solving for Uy, Initial residual = 0, Final residual = 0, No Iterations 0
GAMG:  Solving for p, Initial residual = 0, Final residual = 0, No Iterations 0
time step continuity errors : sum local = 0, global = 0, cumulative = 0

>>>>>>>>>>>>>>>>>>>>>>>>>>>>>>> A*x=b: (yes source term)
b:
16
(
0.002992990835600452
0.002992643534258692
0.002992643534258691
0.002992990835600453
0.002992643534258692
0.002992296331369825
0.002992296331369824
0.002992643534258692
0.002992643534258691
0.002992296331369823
0.002992296331369823
0.002992643534258692
0.002992990835600453
0.002992643534258692
0.002992643534258691
0.002992990835600453
)

diagonalPBiCGStab:  Solving for Sh2, Initial residual = 0.9969127774807613, Final residual = 1.056759287218883e-26, No Iterations 3
ExecutionTime = 0.03 s  ClockTime = 0 s

Courant Number mean: 0 max: 0
deltaT = 1
Time = 43

PIMPLE: iteration 1
smoothSolver:  Solving for Ux, Initial residual = 0, Final residual = 0, No Iterations 0
smoothSolver:  Solving for Uy, Initial residual = 0, Final residual = 0, No Iterations 0
GAMG:  Solving for p, Initial residual = 0, Final residual = 0, No Iterations 0
time step continuity errors : sum local = 0, global = 0, cumulative = 0

>>>>>>>>>>>>>>>>>>>>>>>>>>>>>>> A*x=b: (yes source term)
b:
16
(
0.003049221818505016
0.003048866547357015
0.003048866547357014
0.003049221818505017
0.003048866547357015
0.003048511376632543
0.003048511376632542
0.003048866547357015
0.003048866547357014
0.003048511376632541
0.003048511376632541
0.003048866547357015
0.003049221818505017
0.003048866547357015
0.003048866547357014
0.003049221818505017
)

diagonalPBiCGStab:  Solving for Sh2, Initial residual = 0.996842155555613, Final residual = 5.430866467121515e-27, No Iterations 3
ExecutionTime = 0.03 s  ClockTime = 0 s

Courant Number mean: 0 max: 0
deltaT = 1
Time = 44

PIMPLE: iteration 1
smoothSolver:  Solving for Ux, Initial residual = 0, Final residual = 0, No Iterations 0
smoothSolver:  Solving for Uy, Initial residual = 0, Final residual = 0, No Iterations 0
GAMG:  Solving for p, Initial residual = 0, Final residual = 0, No Iterations 0
time step continuity errors : sum local = 0, global = 0, cumulative = 0

>>>>>>>>>>>>>>>>>>>>>>>>>>>>>>> A*x=b: (yes source term)
b:
16
(
0.003105452778529763
0.003105089560458147
0.003105089560458146
0.003105452778529763
0.003105089560458147
0.003104726444762145
0.003104726444762144
0.003105089560458147
0.003105089560458146
0.003104726444762143
0.003104726444762143
0.003105089560458147
0.003105452778529763
0.003105089560458147
0.003105089560458146
0.003105452778529764
)

diagonalPBiCGStab:  Solving for Sh2, Initial residual = 0.9967717463312148, Final residual = 1.425194600073598e-27, No Iterations 3
ExecutionTime = 0.03 s  ClockTime = 0 s

Courant Number mean: 0 max: 0
deltaT = 1
Time = 45

PIMPLE: iteration 1
smoothSolver:  Solving for Ux, Initial residual = 0, Final residual = 0, No Iterations 0
smoothSolver:  Solving for Uy, Initial residual = 0, Final residual = 0, No Iterations 0
GAMG:  Solving for p, Initial residual = 0, Final residual = 0, No Iterations 0
time step continuity errors : sum local = 0, global = 0, cumulative = 0

>>>>>>>>>>>>>>>>>>>>>>>>>>>>>>> A*x=b: (yes source term)
b:
16
(
0.003161683715740381
0.003161312573562063
0.003161312573562062
0.003161683715740382
0.003161312573562063
0.003160941535693012
0.003160941535693011
0.003161312573562063
0.003161312573562062
0.003160941535693009
0.003160941535693009
0.003161312573562063
0.003161683715740382
0.003161312573562063
0.003161312573562062
0.003161683715740383
)

diagonalPBiCGStab:  Solving for Sh2, Initial residual = 0.9967015491376754, Final residual = 1.038107435802026e-27, No Iterations 3
ExecutionTime = 0.03 s  ClockTime = 0 s

Courant Number mean: 0 max: 0
deltaT = 1
Time = 46

PIMPLE: iteration 1
smoothSolver:  Solving for Ux, Initial residual = 0, Final residual = 0, No Iterations 0
smoothSolver:  Solving for Uy, Initial residual = 0, Final residual = 0, No Iterations 0
GAMG:  Solving for p, Initial residual = 0, Final residual = 0, No Iterations 0
time step continuity errors : sum local = 0, global = 0, cumulative = 0

>>>>>>>>>>>>>>>>>>>>>>>>>>>>>>> A*x=b: (yes source term)
b:
16
(
0.003217914630202377
0.003217535586668735
0.003217535586668735
0.003217914630202378
0.003217535586668735
0.003217156649359716
0.003217156649359715
0.003217535586668735
0.003217535586668735
0.003217156649359714
0.003217156649359714
0.003217535586668735
0.003217914630202378
0.003217535586668735
0.003217535586668735
0.003217914630202379
)

diagonalPBiCGStab:  Solving for Sh2, Initial residual = 0.9966315633073476, Final residual = 1.799669354846265e-27, No Iterations 3
ExecutionTime = 0.03 s  ClockTime = 0 s

Courant Number mean: 0 max: 0
deltaT = 1
Time = 47

PIMPLE: iteration 1
smoothSolver:  Solving for Ux, Initial residual = 0, Final residual = 0, No Iterations 0
smoothSolver:  Solving for Uy, Initial residual = 0, Final residual = 0, No Iterations 0
GAMG:  Solving for p, Initial residual = 0, Final residual = 0, No Iterations 0
time step continuity errors : sum local = 0, global = 0, cumulative = 0

>>>>>>>>>>>>>>>>>>>>>>>>>>>>>>> A*x=b: (yes source term)
b:
16
(
0.003274145521981063
0.003273758599778138
0.003273758599778138
0.003274145521981064
0.003273758599778138
0.003273371785697014
0.003273371785697013
0.003273758599778138
0.003273758599778138
0.003273371785697012
0.003273371785697012
0.003273758599778138
0.003274145521981064
0.003273758599778138
0.003273758599778138
0.003274145521981065
)

diagonalPBiCGStab:  Solving for Sh2, Initial residual = 0.9965617881748993, Final residual = 1.166939379081098e-27, No Iterations 3
ExecutionTime = 0.03 s  ClockTime = 0 s

Courant Number mean: 0 max: 0
deltaT = 1
Time = 48

PIMPLE: iteration 1
smoothSolver:  Solving for Ux, Initial residual = 0, Final residual = 0, No Iterations 0
smoothSolver:  Solving for Uy, Initial residual = 0, Final residual = 0, No Iterations 0
GAMG:  Solving for p, Initial residual = 0, Final residual = 0, No Iterations 0
time step continuity errors : sum local = 0, global = 0, cumulative = 0

>>>>>>>>>>>>>>>>>>>>>>>>>>>>>>> A*x=b: (yes source term)
b:
16
(
0.003330376391141567
0.003329981612890246
0.003329981612890245
0.003330376391141568
0.003329981612890246
0.003329586944639852
0.003329586944639851
0.003329981612890246
0.003329981612890245
0.003329586944639849
0.003329586944639849
0.003329981612890246
0.003330376391141568
0.003329981612890246
0.003329981612890245
0.003330376391141569
)

diagonalPBiCGStab:  Solving for Sh2, Initial residual = 0.9964922230772364, Final residual = 9.396276940842778e-27, No Iterations 3
ExecutionTime = 0.03 s  ClockTime = 0 s

Courant Number mean: 0 max: 0
deltaT = 1
Time = 49

PIMPLE: iteration 1
smoothSolver:  Solving for Ux, Initial residual = 0, Final residual = 0, No Iterations 0
smoothSolver:  Solving for Uy, Initial residual = 0, Final residual = 0, No Iterations 0
GAMG:  Solving for p, Initial residual = 0, Final residual = 0, No Iterations 0
time step continuity errors : sum local = 0, global = 0, cumulative = 0

>>>>>>>>>>>>>>>>>>>>>>>>>>>>>>> A*x=b: (yes source term)
b:
16
(
0.003386607237748831
0.003386204626005032
0.003386204626005032
0.003386607237748832
0.003386204626005032
0.003385802126123362
0.003385802126123362
0.003386204626005032
0.003386204626005032
0.00338580212612336
0.00338580212612336
0.003386204626005032
0.003386607237748832
0.003386204626005032
0.003386204626005032
0.003386607237748833
)

diagonalPBiCGStab:  Solving for Sh2, Initial residual = 0.996422867353512, Final residual = 9.659682952961856e-27, No Iterations 3
ExecutionTime = 0.03 s  ClockTime = 0 s

Courant Number mean: 0 max: 0
deltaT = 1
Time = 50

PIMPLE: iteration 1
smoothSolver:  Solving for Ux, Initial residual = 0, Final residual = 0, No Iterations 0
smoothSolver:  Solving for Uy, Initial residual = 0, Final residual = 0, No Iterations 0
GAMG:  Solving for p, Initial residual = 0, Final residual = 0, No Iterations 0
time step continuity errors : sum local = 0, global = 0, cumulative = 0

>>>>>>>>>>>>>>>>>>>>>>>>>>>>>>> A*x=b: (yes source term)
b:
16
(
0.003442838061867607
0.003442427639122472
0.003442427639122471
0.003442838061867607
0.003442427639122472
0.003442017330082862
0.003442017330082861
0.003442427639122472
0.003442427639122471
0.00344201733008286
0.00344201733008286
0.003442427639122472
0.003442838061867607
0.003442427639122472
0.003442427639122471
0.003442838061867608
)

diagonalPBiCGStab:  Solving for Sh2, Initial residual = 0.9963537203451575, Final residual = 6.066817842021735e-27, No Iterations 3
ExecutionTime = 0.03 s  ClockTime = 0 s

Courant Number mean: 0 max: 0
deltaT = 1
Time = 51

PIMPLE: iteration 1
smoothSolver:  Solving for Ux, Initial residual = 0, Final residual = 0, No Iterations 0
smoothSolver:  Solving for Uy, Initial residual = 0, Final residual = 0, No Iterations 0
GAMG:  Solving for p, Initial residual = 0, Final residual = 0, No Iterations 0
time step continuity errors : sum local = 0, global = 0, cumulative = 0

>>>>>>>>>>>>>>>>>>>>>>>>>>>>>>> A*x=b: (yes source term)
b:
16
(
0.003499068863562463
0.003498650652242539
0.003498650652242538
0.003499068863562463
0.003498650652242539
0.003498232556453857
0.003498232556453856
0.003498650652242539
0.003498650652242538
0.003498232556453854
0.003498232556453854
0.003498650652242539
0.003499068863562463
0.003498650652242539
0.003498650652242538
0.003499068863562465
)

diagonalPBiCGStab:  Solving for Sh2, Initial residual = 0.9962847813958116, Final residual = 8.147884859019726e-27, No Iterations 3
ExecutionTime = 0.03 s  ClockTime = 0 s

Courant Number mean: 0 max: 0
deltaT = 1
Time = 52

PIMPLE: iteration 1
smoothSolver:  Solving for Ux, Initial residual = 0, Final residual = 0, No Iterations 0
smoothSolver:  Solving for Uy, Initial residual = 0, Final residual = 0, No Iterations 0
GAMG:  Solving for p, Initial residual = 0, Final residual = 0, No Iterations 0
time step continuity errors : sum local = 0, global = 0, cumulative = 0

>>>>>>>>>>>>>>>>>>>>>>>>>>>>>>> A*x=b: (yes source term)
b:
16
(
0.003555299642897781
0.003554873665365209
0.003554873665365208
0.003555299642897782
0.003554873665365209
0.003554447805172033
0.003554447805172033
0.003554873665365209
0.003554873665365208
0.003554447805172031
0.003554447805172031
0.003554873665365209
0.003555299642897782
0.003554873665365209
0.003554873665365208
0.003555299642897784
)

diagonalPBiCGStab:  Solving for Sh2, Initial residual = 0.9962160498513521, Final residual = 3.696072568114255e-27, No Iterations 3
ExecutionTime = 0.03 s  ClockTime = 0 s

Courant Number mean: 0 max: 0
deltaT = 1
Time = 53

PIMPLE: iteration 1
smoothSolver:  Solving for Ux, Initial residual = 0, Final residual = 0, No Iterations 0
smoothSolver:  Solving for Uy, Initial residual = 0, Final residual = 0, No Iterations 0
GAMG:  Solving for p, Initial residual = 0, Final residual = 0, No Iterations 0
time step continuity errors : sum local = 0, global = 0, cumulative = 0

>>>>>>>>>>>>>>>>>>>>>>>>>>>>>>> A*x=b: (yes source term)
b:
16
(
0.003611530399937761
0.003611096678490456
0.003611096678490455
0.003611530399937761
0.003611096678490456
0.003610663076173266
0.003610663076173265
0.003611096678490456
0.003611096678490455
0.003610663076173264
0.003610663076173264
0.003611096678490456
0.003611530399937761
0.003611096678490456
0.003611096678490455
0.003611530399937763
)

diagonalPBiCGStab:  Solving for Sh2, Initial residual = 0.996147525059896, Final residual = 4.285184712265556e-27, No Iterations 3
ExecutionTime = 0.04 s  ClockTime = 0 s

Courant Number mean: 0 max: 0
deltaT = 1
Time = 54

PIMPLE: iteration 1
smoothSolver:  Solving for Ux, Initial residual = 0, Final residual = 0, No Iterations 0
smoothSolver:  Solving for Uy, Initial residual = 0, Final residual = 0, No Iterations 0
GAMG:  Solving for p, Initial residual = 0, Final residual = 0, No Iterations 0
time step continuity errors : sum local = 0, global = 0, cumulative = 0

>>>>>>>>>>>>>>>>>>>>>>>>>>>>>>> A*x=b: (yes source term)
b:
16
(
0.003667761134746413
0.003667319691618256
0.003667319691618255
0.003667761134746413
0.003667319691618256
0.003666878369393612
0.00366687836939361
0.003667319691618256
0.003667319691618255
0.00366687836939361
0.00366687836939361
0.003667319691618256
0.003667761134746413
0.003667319691618256
0.003667319691618255
0.003667761134746415
)

diagonalPBiCGStab:  Solving for Sh2, Initial residual = 0.9960792063717433, Final residual = 6.206338998427737e-27, No Iterations 3
ExecutionTime = 0.04 s  ClockTime = 0 s

Courant Number mean: 0 max: 0
deltaT = 1
Time = 55

PIMPLE: iteration 1
smoothSolver:  Solving for Ux, Initial residual = 0, Final residual = 0, No Iterations 0
smoothSolver:  Solving for Uy, Initial residual = 0, Final residual = 0, No Iterations 0
GAMG:  Solving for p, Initial residual = 0, Final residual = 0, No Iterations 0
time step continuity errors : sum local = 0, global = 0, cumulative = 0

>>>>>>>>>>>>>>>>>>>>>>>>>>>>>>> A*x=b: (yes source term)
b:
16
(
0.003723991847387568
0.003723542704748583
0.003723542704748583
0.003723991847387567
0.003723542704748583
0.003723093684769312
0.00372309368476931
0.003723542704748583
0.003723542704748583
0.003723093684769309
0.003723093684769309
0.003723542704748583
0.003723991847387567
0.003723542704748583
0.003723542704748583
0.00372399184738757
)

diagonalPBiCGStab:  Solving for Sh2, Initial residual = 0.9960110931394551, Final residual = 4.057477300716298e-27, No Iterations 3
ExecutionTime = 0.04 s  ClockTime = 0 s

Courant Number mean: 0 max: 0
deltaT = 1
Time = 56

PIMPLE: iteration 1
smoothSolver:  Solving for Ux, Initial residual = 0, Final residual = 0, No Iterations 0
smoothSolver:  Solving for Uy, Initial residual = 0, Final residual = 0, No Iterations 0
GAMG:  Solving for p, Initial residual = 0, Final residual = 0, No Iterations 0
time step continuity errors : sum local = 0, global = 0, cumulative = 0

>>>>>>>>>>>>>>>>>>>>>>>>>>>>>>> A*x=b: (yes source term)
b:
16
(
0.003780222537924871
0.003779765717881415
0.003779765717881413
0.00378022253792487
0.003779765717881415
0.003779309022236789
0.003779309022236788
0.003779765717881415
0.003779765717881413
0.003779309022236787
0.003779309022236787
0.003779765717881415
0.00378022253792487
0.003779765717881415
0.003779765717881413
0.003780222537924873
)

diagonalPBiCGStab:  Solving for Sh2, Initial residual = 0.9959431847176929, Final residual = 4.321133532348046e-27, No Iterations 3
ExecutionTime = 0.04 s  ClockTime = 0 s

Courant Number mean: 0 max: 0
deltaT = 1
Time = 57

PIMPLE: iteration 1
smoothSolver:  Solving for Ux, Initial residual = 0, Final residual = 0, No Iterations 0
smoothSolver:  Solving for Uy, Initial residual = 0, Final residual = 0, No Iterations 0
GAMG:  Solving for p, Initial residual = 0, Final residual = 0, No Iterations 0
time step continuity errors : sum local = 0, global = 0, cumulative = 0

>>>>>>>>>>>>>>>>>>>>>>>>>>>>>>> A*x=b: (yes source term)
b:
16
(
0.003836453206421785
0.003835988731016723
0.003835988731016722
0.003836453206421784
0.003835988731016723
0.003835524381732651
0.003835524381732649
0.003835988731016723
0.003835988731016722
0.003835524381732648
0.003835524381732648
0.003835988731016723
0.003836453206421784
0.003835988731016723
0.003835988731016722
0.003836453206421786
)

diagonalPBiCGStab:  Solving for Sh2, Initial residual = 0.9958754804633908, Final residual = 2.602323959331579e-27, No Iterations 3
ExecutionTime = 0.04 s  ClockTime = 0 s

Courant Number mean: 0 max: 0
deltaT = 1
Time = 58

PIMPLE: iteration 1
smoothSolver:  Solving for Ux, Initial residual = 0, Final residual = 0, No Iterations 0
smoothSolver:  Solving for Uy, Initial residual = 0, Final residual = 0, No Iterations 0
GAMG:  Solving for p, Initial residual = 0, Final residual = 0, No Iterations 0
time step continuity errors : sum local = 0, global = 0, cumulative = 0

>>>>>>>>>>>>>>>>>>>>>>>>>>>>>>> A*x=b: (yes source term)
b:
16
(
0.003892683852941592
0.003892211744154487
0.003892211744154486
0.00389268385294159
0.003892211744154487
0.003891739763193683
0.003891739763193681
0.003892211744154487
0.003892211744154486
0.003891739763193681
0.003891739763193681
0.003892211744154487
0.00389268385294159
0.003892211744154487
0.003892211744154486
0.003892683852941592
)

diagonalPBiCGStab:  Solving for Sh2, Initial residual = 0.9958079797356502, Final residual = 1.61836395051041e-26, No Iterations 3
ExecutionTime = 0.04 s  ClockTime = 0 s

Courant Number mean: 0 max: 0
deltaT = 1
Time = 59

PIMPLE: iteration 1
smoothSolver:  Solving for Ux, Initial residual = 0, Final residual = 0, No Iterations 0
smoothSolver:  Solving for Uy, Initial residual = 0, Final residual = 0, No Iterations 0
GAMG:  Solving for p, Initial residual = 0, Final residual = 0, No Iterations 0
time step continuity errors : sum local = 0, global = 0, cumulative = 0

>>>>>>>>>>>>>>>>>>>>>>>>>>>>>>> A*x=b: (yes source term)
b:
16
(
0.00394891447754739
0.003948434757294682
0.003948434757294681
0.003948914477547388
0.003948434757294682
0.003947955166556856
0.003947955166556856
0.003948434757294682
0.003948434757294681
0.003947955166556854
0.003947955166556854
0.003948434757294682
0.003948914477547388
0.003948434757294682
0.003948434757294681
0.003948914477547391
)

diagonalPBiCGStab:  Solving for Sh2, Initial residual = 0.9957406818956934, Final residual = 1.448267276420347e-27, No Iterations 3
ExecutionTime = 0.04 s  ClockTime = 0 s

Courant Number mean: 0 max: 0
deltaT = 1
Time = 60

PIMPLE: iteration 1
smoothSolver:  Solving for Ux, Initial residual = 0, Final residual = 0, No Iterations 0
smoothSolver:  Solving for Uy, Initial residual = 0, Final residual = 0, No Iterations 0
GAMG:  Solving for p, Initial residual = 0, Final residual = 0, No Iterations 0
time step continuity errors : sum local = 0, global = 0, cumulative = 0

>>>>>>>>>>>>>>>>>>>>>>>>>>>>>>> A*x=b: (yes source term)
b:
16
(
0.004005145080302098
0.004004657770437283
0.004004657770437283
0.004005145080302096
0.004004657770437283
0.004004170591759321
0.00400417059175932
0.004004657770437283
0.004004657770437283
0.004004170591759318
0.004004170591759318
0.004004657770437283
0.004005145080302096
0.004004657770437283
0.004004657770437283
0.004005145080302099
)

diagonalPBiCGStab:  Solving for Sh2, Initial residual = 0.9956735863069407, Final residual = 5.436772643800717e-27, No Iterations 3
ExecutionTime = 0.04 s  ClockTime = 0 s

Courant Number mean: 0 max: 0
deltaT = 1
Time = 61

PIMPLE: iteration 1
smoothSolver:  Solving for Ux, Initial residual = 0, Final residual = 0, No Iterations 0
smoothSolver:  Solving for Uy, Initial residual = 0, Final residual = 0, No Iterations 0
GAMG:  Solving for p, Initial residual = 0, Final residual = 0, No Iterations 0
time step continuity errors : sum local = 0, global = 0, cumulative = 0

>>>>>>>>>>>>>>>>>>>>>>>>>>>>>>> A*x=b: (yes source term)
b:
16
(
0.004061375661268453
0.004060880783582266
0.004060880783582265
0.00406137566126845
0.004060880783582266
0.004060386038738404
0.004060386038738403
0.004060880783582266
0.004060880783582265
0.004060386038738402
0.004060386038738402
0.004060880783582266
0.00406137566126845
0.004060880783582266
0.004060880783582265
0.004061375661268453
)

diagonalPBiCGStab:  Solving for Sh2, Initial residual = 0.995606692334988, Final residual = 8.762065161616654e-27, No Iterations 3
ExecutionTime = 0.04 s  ClockTime = 0 s

Courant Number mean: 0 max: 0
deltaT = 1
Time = 62

PIMPLE: iteration 1
smoothSolver:  Solving for Ux, Initial residual = 0, Final residual = 0, No Iterations 0
smoothSolver:  Solving for Uy, Initial residual = 0, Final residual = 0, No Iterations 0
GAMG:  Solving for p, Initial residual = 0, Final residual = 0, No Iterations 0
time step continuity errors : sum local = 0, global = 0, cumulative = 0

>>>>>>>>>>>>>>>>>>>>>>>>>>>>>>> A*x=b: (yes source term)
b:
16
(
0.004117606220509011
0.004117103796729609
0.004117103796729608
0.004117606220509009
0.004117103796729609
0.004116601507431618
0.004116601507431617
0.004117103796729609
0.004117103796729608
0.004116601507431616
0.004116601507431616
0.004117103796729609
0.004117606220509009
0.004117103796729609
0.004117103796729608
0.004117606220509011
)

diagonalPBiCGStab:  Solving for Sh2, Initial residual = 0.9955399993475287, Final residual = 2.09833721948128e-27, No Iterations 3
ExecutionTime = 0.04 s  ClockTime = 0 s

Courant Number mean: 0 max: 0
deltaT = 1
Time = 63

PIMPLE: iteration 1
smoothSolver:  Solving for Ux, Initial residual = 0, Final residual = 0, No Iterations 0
smoothSolver:  Solving for Uy, Initial residual = 0, Final residual = 0, No Iterations 0
GAMG:  Solving for p, Initial residual = 0, Final residual = 0, No Iterations 0
time step continuity errors : sum local = 0, global = 0, cumulative = 0

>>>>>>>>>>>>>>>>>>>>>>>>>>>>>>> A*x=b: (yes source term)
b:
16
(
0.00417383675808615
0.004173326809879288
0.004173326809879288
0.004173836758086149
0.004173326809879288
0.004172816997776651
0.004172816997776651
0.004173326809879288
0.004173326809879288
0.00417281699777665
0.00417281699777665
0.004173326809879288
0.004173836758086149
0.004173326809879288
0.004173326809879288
0.00417383675808615
)

diagonalPBiCGStab:  Solving for Sh2, Initial residual = 0.9954735067144159, Final residual = 1.385300872829017e-26, No Iterations 3
ExecutionTime = 0.04 s  ClockTime = 0 s

Courant Number mean: 0 max: 0
deltaT = 1
Time = 64

PIMPLE: iteration 1
smoothSolver:  Solving for Ux, Initial residual = 0, Final residual = 0, No Iterations 0
smoothSolver:  Solving for Uy, Initial residual = 0, Final residual = 0, No Iterations 0
GAMG:  Solving for p, Initial residual = 0, Final residual = 0, No Iterations 0
time step continuity errors : sum local = 0, global = 0, cumulative = 0

>>>>>>>>>>>>>>>>>>>>>>>>>>>>>>> A*x=b: (yes source term)
b:
16
(
0.00423006727406207
0.004229549823031279
0.004229549823031278
0.004230067274062068
0.004229549823031279
0.004229032509711374
0.004229032509711374
0.004229549823031278
0.004229549823031278
0.004229032509711373
0.004229032509711373
0.004229549823031279
0.004230067274062068
0.004229549823031279
0.004229549823031278
0.004230067274062069
)

diagonalPBiCGStab:  Solving for Sh2, Initial residual = 0.995407213807652, Final residual = 5.521203532601956e-28, No Iterations 3
ExecutionTime = 0.04 s  ClockTime = 0 s

Courant Number mean: 0 max: 0
deltaT = 1
Time = 65

PIMPLE: iteration 1
smoothSolver:  Solving for Ux, Initial residual = 0, Final residual = 0, No Iterations 0
smoothSolver:  Solving for Uy, Initial residual = 0, Final residual = 0, No Iterations 0
GAMG:  Solving for p, Initial residual = 0, Final residual = 0, No Iterations 0
time step continuity errors : sum local = 0, global = 0, cumulative = 0

>>>>>>>>>>>>>>>>>>>>>>>>>>>>>>> A*x=b: (yes source term)
b:
16
(
0.004286297768498787
0.004285772836185558
0.004285772836185558
0.004286297768498786
0.004285772836185558
0.004285248043173832
0.004285248043173832
0.004285772836185558
0.004285772836185558
0.00428524804317383
0.00428524804317383
0.004285772836185558
0.004286297768498786
0.004285772836185558
0.004285772836185558
0.004286297768498786
)

diagonalPBiCGStab:  Solving for Sh2, Initial residual = 0.9953411200013573, Final residual = 1.490625971511688e-27, No Iterations 3
ExecutionTime = 0.04 s  ClockTime = 0 s

Courant Number mean: 0 max: 0
deltaT = 1
Time = 66

PIMPLE: iteration 1
smoothSolver:  Solving for Ux, Initial residual = 0, Final residual = 0, No Iterations 0
smoothSolver:  Solving for Uy, Initial residual = 0, Final residual = 0, No Iterations 0
GAMG:  Solving for p, Initial residual = 0, Final residual = 0, No Iterations 0
time step continuity errors : sum local = 0, global = 0, cumulative = 0

>>>>>>>>>>>>>>>>>>>>>>>>>>>>>>> A*x=b: (yes source term)
b:
16
(
0.004342528241458144
0.004341995849342105
0.004341995849342104
0.004342528241458144
0.004341995849342105
0.004341463598102249
0.004341463598102249
0.004341995849342104
0.004341995849342104
0.004341463598102247
0.004341463598102247
0.004341995849342105
0.004342528241458144
0.004341995849342105
0.004341995849342104
0.004342528241458143
)

diagonalPBiCGStab:  Solving for Sh2, Initial residual = 0.9952752246717327, Final residual = 1.055023429099348e-27, No Iterations 3
ExecutionTime = 0.04 s  ClockTime = 0 s

Courant Number mean: 0 max: 0
deltaT = 1
Time = 67

PIMPLE: iteration 1
smoothSolver:  Solving for Ux, Initial residual = 0, Final residual = 0, No Iterations 0
smoothSolver:  Solving for Uy, Initial residual = 0, Final residual = 0, No Iterations 0
GAMG:  Solving for p, Initial residual = 0, Final residual = 0, No Iterations 0
time step continuity errors : sum local = 0, global = 0, cumulative = 0

>>>>>>>>>>>>>>>>>>>>>>>>>>>>>>> A*x=b: (yes source term)
b:
16
(
0.004398758693001809
0.004398218862500895
0.004398218862500894
0.004398758693001809
0.004398218862500895
0.004397679174435026
0.004397679174435027
0.004398218862500894
0.004398218862500894
0.004397679174435024
0.004397679174435024
0.004398218862500895
0.004398758693001809
0.004398218862500895
0.004398218862500894
0.004398758693001808
)

diagonalPBiCGStab:  Solving for Sh2, Initial residual = 0.9952095271970997, Final residual = 2.809121132322257e-27, No Iterations 3
ExecutionTime = 0.04 s  ClockTime = 0 s

Courant Number mean: 0 max: 0
deltaT = 1
Time = 68

PIMPLE: iteration 1
smoothSolver:  Solving for Ux, Initial residual = 0, Final residual = 0, No Iterations 0
smoothSolver:  Solving for Uy, Initial residual = 0, Final residual = 0, No Iterations 0
GAMG:  Solving for p, Initial residual = 0, Final residual = 0, No Iterations 0
time step continuity errors : sum local = 0, global = 0, cumulative = 0

>>>>>>>>>>>>>>>>>>>>>>>>>>>>>>> A*x=b: (yes source term)
b:
16
(
0.004454989123191264
0.004454441875661907
0.004454441875661906
0.004454989123191264
0.004454441875661907
0.004453894772110742
0.004453894772110742
0.004454441875661906
0.004454441875661906
0.004453894772110739
0.004453894772110739
0.004454441875661907
0.004454989123191264
0.004454441875661907
0.004454441875661906
0.004454989123191263
)

diagonalPBiCGStab:  Solving for Sh2, Initial residual = 0.995144026957864, Final residual = 1.692721407414305e-27, No Iterations 3
ExecutionTime = 0.04 s  ClockTime = 0 s

Courant Number mean: 0 max: 0
deltaT = 1
Time = 69

PIMPLE: iteration 1
smoothSolver:  Solving for Ux, Initial residual = 0, Final residual = 0, No Iterations 0
smoothSolver:  Solving for Uy, Initial residual = 0, Final residual = 0, No Iterations 0
GAMG:  Solving for p, Initial residual = 0, Final residual = 0, No Iterations 0
time step continuity errors : sum local = 0, global = 0, cumulative = 0

>>>>>>>>>>>>>>>>>>>>>>>>>>>>>>> A*x=b: (yes source term)
b:
16
(
0.004511219532087819
0.004510664888825117
0.004510664888825114
0.004511219532087819
0.004510664888825117
0.004510110391068148
0.004510110391068149
0.004510664888825116
0.004510664888825114
0.004510110391068145
0.004510110391068145
0.004510664888825117
0.004511219532087819
0.004510664888825117
0.004510664888825114
0.004511219532087819
)

diagonalPBiCGStab:  Solving for Sh2, Initial residual = 0.9950787233366041, Final residual = 6.770441308695656e-27, No Iterations 3
ExecutionTime = 0.04 s  ClockTime = 0 s

Courant Number mean: 0 max: 0
deltaT = 1
Time = 70

PIMPLE: iteration 1
smoothSolver:  Solving for Ux, Initial residual = 0, Final residual = 0, No Iterations 0
smoothSolver:  Solving for Uy, Initial residual = 0, Final residual = 0, No Iterations 0
GAMG:  Solving for p, Initial residual = 0, Final residual = 0, No Iterations 0
time step continuity errors : sum local = 0, global = 0, cumulative = 0

>>>>>>>>>>>>>>>>>>>>>>>>>>>>>>> A*x=b: (yes source term)
b:
16
(
0.004567449919752612
0.004566887901990504
0.004566887901990502
0.004567449919752611
0.004566887901990504
0.004566326031246179
0.00456632603124618
0.004566887901990503
0.004566887901990502
0.004566326031246177
0.004566326031246177
0.004566887901990504
0.004567449919752611
0.004566887901990504
0.004566887901990502
0.004567449919752611
)

diagonalPBiCGStab:  Solving for Sh2, Initial residual = 0.9950136157178663, Final residual = 1.078661870217718e-26, No Iterations 3
ExecutionTime = 0.04 s  ClockTime = 0 s

Courant Number mean: 0 max: 0
deltaT = 1
Time = 71

PIMPLE: iteration 1
smoothSolver:  Solving for Ux, Initial residual = 0, Final residual = 0, No Iterations 0
smoothSolver:  Solving for Uy, Initial residual = 0, Final residual = 0, No Iterations 0
GAMG:  Solving for p, Initial residual = 0, Final residual = 0, No Iterations 0
time step continuity errors : sum local = 0, global = 0, cumulative = 0

>>>>>>>>>>>>>>>>>>>>>>>>>>>>>>> A*x=b: (yes source term)
b:
16
(
0.004623680286246598
0.004623110915158044
0.004623110915158041
0.004623680286246597
0.004623110915158044
0.004622541692583937
0.004622541692583936
0.004623110915158042
0.004623110915158041
0.004622541692583935
0.004622541692583935
0.004623110915158044
0.004623680286246597
0.004623110915158044
0.004623110915158041
0.004623680286246597
)

diagonalPBiCGStab:  Solving for Sh2, Initial residual = 0.99494870348835, Final residual = 2.544715593563663e-27, No Iterations 3
ExecutionTime = 0.04 s  ClockTime = 0 s

Courant Number mean: 0 max: 0
deltaT = 1
Time = 72

PIMPLE: iteration 1
smoothSolver:  Solving for Ux, Initial residual = 0, Final residual = 0, No Iterations 0
smoothSolver:  Solving for Uy, Initial residual = 0, Final residual = 0, No Iterations 0
GAMG:  Solving for p, Initial residual = 0, Final residual = 0, No Iterations 0
time step continuity errors : sum local = 0, global = 0, cumulative = 0

>>>>>>>>>>>>>>>>>>>>>>>>>>>>>>> A*x=b: (yes source term)
b:
16
(
0.004679910631630564
0.004679333928327717
0.004679333928327714
0.004679910631630563
0.004679333928327717
0.004678757375020702
0.004678757375020702
0.004679333928327715
0.004679333928327714
0.0046787573750207
0.0046787573750207
0.004679333928327717
0.004679910631630563
0.004679333928327717
0.004679333928327714
0.004679910631630563
)

diagonalPBiCGStab:  Solving for Sh2, Initial residual = 0.9948839860367447, Final residual = 6.33991511403549e-27, No Iterations 3
ExecutionTime = 0.04 s  ClockTime = 0 s

Courant Number mean: 0 max: 0
deltaT = 1
Time = 73

PIMPLE: iteration 1
smoothSolver:  Solving for Ux, Initial residual = 0, Final residual = 0, No Iterations 0
smoothSolver:  Solving for Uy, Initial residual = 0, Final residual = 0, No Iterations 0
GAMG:  Solving for p, Initial residual = 0, Final residual = 0, No Iterations 0
time step continuity errors : sum local = 0, global = 0, cumulative = 0

>>>>>>>>>>>>>>>>>>>>>>>>>>>>>>> A*x=b: (yes source term)
b:
16
(
0.004736140955965116
0.004735556941499499
0.004735556941499497
0.004736140955965115
0.004735556941499499
0.004734973078495928
0.004734973078495928
0.004735556941499497
0.004735556941499497
0.004734973078495926
0.004734973078495926
0.004735556941499499
0.004736140955965115
0.004735556941499499
0.004735556941499497
0.004736140955965115
)

diagonalPBiCGStab:  Solving for Sh2, Initial residual = 0.9948194627538907, Final residual = 8.522157131782261e-28, No Iterations 3
ExecutionTime = 0.04 s  ClockTime = 0 s

Courant Number mean: 0 max: 0
deltaT = 1
Time = 74

PIMPLE: iteration 1
smoothSolver:  Solving for Ux, Initial residual = 0, Final residual = 0, No Iterations 0
smoothSolver:  Solving for Uy, Initial residual = 0, Final residual = 0, No Iterations 0
GAMG:  Solving for p, Initial residual = 0, Final residual = 0, No Iterations 0
time step continuity errors : sum local = 0, global = 0, cumulative = 0

>>>>>>>>>>>>>>>>>>>>>>>>>>>>>>> A*x=b: (yes source term)
b:
16
(
0.004792371259310688
0.004791779954673371
0.004791779954673368
0.004792371259310689
0.004791779954673371
0.004791188802949243
0.004791188802949242
0.004791779954673369
0.004791779954673368
0.004791188802949241
0.004791188802949241
0.004791779954673371
0.004792371259310689
0.004791779954673371
0.004791779954673368
0.004792371259310689
)

diagonalPBiCGStab:  Solving for Sh2, Initial residual = 0.9947551330326246, Final residual = 5.070049066494238e-27, No Iterations 3
ExecutionTime = 0.04 s  ClockTime = 0 s

Courant Number mean: 0 max: 0
deltaT = 1
Time = 75

PIMPLE: iteration 1
smoothSolver:  Solving for Ux, Initial residual = 0, Final residual = 0, No Iterations 0
smoothSolver:  Solving for Uy, Initial residual = 0, Final residual = 0, No Iterations 0
GAMG:  Solving for p, Initial residual = 0, Final residual = 0, No Iterations 0
time step continuity errors : sum local = 0, global = 0, cumulative = 0

>>>>>>>>>>>>>>>>>>>>>>>>>>>>>>> A*x=b: (yes source term)
b:
16
(
0.004848601541727545
0.00484800296784931
0.004848002967849307
0.004848601541727545
0.00484800296784931
0.004847404548320449
0.004847404548320448
0.004848002967849307
0.004848002967849307
0.004847404548320446
0.004847404548320446
0.00484800296784931
0.004848601541727545
0.00484800296784931
0.004848002967849307
0.004848601541727545
)

diagonalPBiCGStab:  Solving for Sh2, Initial residual = 0.9946909962678221, Final residual = 2.335627749511881e-27, No Iterations 3
ExecutionTime = 0.04 s  ClockTime = 0 s

Courant Number mean: 0 max: 0
deltaT = 1
Time = 76

PIMPLE: iteration 1
smoothSolver:  Solving for Ux, Initial residual = 0, Final residual = 0, No Iterations 0
smoothSolver:  Solving for Uy, Initial residual = 0, Final residual = 0, No Iterations 0
GAMG:  Solving for p, Initial residual = 0, Final residual = 0, No Iterations 0
time step continuity errors : sum local = 0, global = 0, cumulative = 0

>>>>>>>>>>>>>>>>>>>>>>>>>>>>>>> A*x=b: (yes source term)
b:
16
(
0.004904831803275772
0.004904225981027293
0.004904225981027292
0.004904831803275772
0.004904225981027293
0.004903620314549518
0.004903620314549517
0.004904225981027291
0.004904225981027292
0.004903620314549515
0.004903620314549515
0.004904225981027293
0.004904831803275772
0.004904225981027293
0.004904225981027292
0.004904831803275772
)

diagonalPBiCGStab:  Solving for Sh2, Initial residual = 0.9946270518564081, Final residual = 1.287271119232801e-27, No Iterations 3
ExecutionTime = 0.04 s  ClockTime = 0 s

Courant Number mean: 0 max: 0
deltaT = 1
Time = 77

PIMPLE: iteration 1
smoothSolver:  Solving for Ux, Initial residual = 0, Final residual = 0, No Iterations 0
smoothSolver:  Solving for Uy, Initial residual = 0, Final residual = 0, No Iterations 0
GAMG:  Solving for p, Initial residual = 0, Final residual = 0, No Iterations 0
time step continuity errors : sum local = 0, global = 0, cumulative = 0

>>>>>>>>>>>>>>>>>>>>>>>>>>>>>>> A*x=b: (yes source term)
b:
16
(
0.004961062044015288
0.004960448994207302
0.004960448994207301
0.004961062044015288
0.004960448994207302
0.004959836101576597
0.004959836101576596
0.0049604489942073
0.004960448994207301
0.004959836101576594
0.004959836101576594
0.004960448994207302
0.004961062044015288
0.004960448994207302
0.004960448994207301
0.004961062044015288
)

diagonalPBiCGStab:  Solving for Sh2, Initial residual = 0.9945632991973783, Final residual = 2.126925939554996e-27, No Iterations 3
ExecutionTime = 0.04 s  ClockTime = 0 s

Courant Number mean: 0 max: 0
deltaT = 1
Time = 78

PIMPLE: iteration 1
smoothSolver:  Solving for Ux, Initial residual = 0, Final residual = 0, No Iterations 0
smoothSolver:  Solving for Uy, Initial residual = 0, Final residual = 0, No Iterations 0
GAMG:  Solving for p, Initial residual = 0, Final residual = 0, No Iterations 0
time step continuity errors : sum local = 0, global = 0, cumulative = 0

>>>>>>>>>>>>>>>>>>>>>>>>>>>>>>> A*x=b: (yes source term)
b:
16
(
0.005017292264005836
0.005016672007389315
0.005016672007389314
0.005017292264005835
0.005016672007389315
0.005016051909342003
0.005016051909342002
0.005016672007389313
0.005016672007389314
0.005016051909342001
0.005016051909342001
0.005016672007389315
0.005017292264005835
0.005016672007389315
0.005016672007389314
0.005017292264005835
)

diagonalPBiCGStab:  Solving for Sh2, Initial residual = 0.9944997376916132, Final residual = 6.4355317303385e-28, No Iterations 3
ExecutionTime = 0.04 s  ClockTime = 0 s

Courant Number mean: 0 max: 0
deltaT = 1
Time = 79

PIMPLE: iteration 1
smoothSolver:  Solving for Ux, Initial residual = 0, Final residual = 0, No Iterations 0
smoothSolver:  Solving for Uy, Initial residual = 0, Final residual = 0, No Iterations 0
GAMG:  Solving for p, Initial residual = 0, Final residual = 0, No Iterations 0
time step continuity errors : sum local = 0, global = 0, cumulative = 0

>>>>>>>>>>>>>>>>>>>>>>>>>>>>>>> A*x=b: (yes source term)
b:
16
(
0.005073522463306986
0.005072895020573311
0.00507289502057331
0.005073522463306985
0.005072895020573311
0.005072267737786226
0.005072267737786226
0.005072895020573309
0.00507289502057331
0.005072267737786225
0.005072267737786225
0.005072895020573311
0.005073522463306985
0.005072895020573311
0.00507289502057331
0.005073522463306985
)

diagonalPBiCGStab:  Solving for Sh2, Initial residual = 0.9944363667421566, Final residual = 4.002032796966835e-27, No Iterations 3
ExecutionTime = 0.04 s  ClockTime = 0 s

Courant Number mean: 0 max: 0
deltaT = 1
Time = 80

PIMPLE: iteration 1
smoothSolver:  Solving for Ux, Initial residual = 0, Final residual = 0, No Iterations 0
smoothSolver:  Solving for Uy, Initial residual = 0, Final residual = 0, No Iterations 0
GAMG:  Solving for p, Initial residual = 0, Final residual = 0, No Iterations 0
time step continuity errors : sum local = 0, global = 0, cumulative = 0

>>>>>>>>>>>>>>>>>>>>>>>>>>>>>>> A*x=b: (yes source term)
b:
16
(
0.00512975264197814
0.005129118033759269
0.005129118033759267
0.005129752641978139
0.005129118033759269
0.005128483586849923
0.005128483586849923
0.005129118033759266
0.005129118033759267
0.005128483586849922
0.005128483586849922
0.005129118033759269
0.005129752641978139
0.005129118033759269
0.005129118033759267
0.005129752641978139
)

diagonalPBiCGStab:  Solving for Sh2, Initial residual = 0.994373185753993, Final residual = 1.91264177517859e-26, No Iterations 3
ExecutionTime = 0.04 s  ClockTime = 0 s

[...]
GAMG:  Solving for p, Initial residual = 0, Final residual = 0, No Iterations 0
time step continuity errors : sum local = 0, global = 0, cumulative = 0

>>>>>>>>>>>>>>>>>>>>>>>>>>>>>>> A*x=b: (yes source term)
b:
16
(
0.02762065867596003
0.0276183233445303
0.02761832334453031
0.02762065867596008
0.02761832334453027
0.02761598820134457
0.02761598820134456
0.02761832334453031
0.02761832334453029
0.02761598820134456
0.02761598820134456
0.02761832334453028
0.02762065867596001
0.02761832334453027
0.02761832334453029
0.02762065867596008
)

diagonalPBiCGStab:  Solving for Sh2, Initial residual = 0.9796003033450982, Final residual = 5.312782626604634e-27, No Iterations 3
ExecutionTime = 0.19 s  ClockTime = 0 s

Courant Number mean: 0 max: 0
deltaT = 1
Time = 481

PIMPLE: iteration 1
smoothSolver:  Solving for Ux, Initial residual = 0, Final residual = 0, No Iterations 0
smoothSolver:  Solving for Uy, Initial residual = 0, Final residual = 0, No Iterations 0
GAMG:  Solving for p, Initial residual = 0, Final residual = 0, No Iterations 0
time step continuity errors : sum local = 0, global = 0, cumulative = 0

>>>>>>>>>>>>>>>>>>>>>>>>>>>>>>> A*x=b: (yes source term)
b:
16
(
0.02767688395160154
0.02767454635775451
0.02767454635775452
0.02767688395160159
0.02767454635775448
0.02767220895179345
0.02767220895179344
0.02767454635775452
0.0276745463577545
0.02767220895179344
0.02767220895179344
0.02767454635775449
0.02767688395160153
0.02767454635775448
0.0276745463577545
0.02767688395160159
)

diagonalPBiCGStab:  Solving for Sh2, Initial residual = 0.9795809429557734, Final residual = 2.44503913520231e-27, No Iterations 3
ExecutionTime = 0.19 s  ClockTime = 0 s

Courant Number mean: 0 max: 0
deltaT = 1
Time = 482

PIMPLE: iteration 1
smoothSolver:  Solving for Ux, Initial residual = 0, Final residual = 0, No Iterations 0
smoothSolver:  Solving for Uy, Initial residual = 0, Final residual = 0, No Iterations 0
GAMG:  Solving for p, Initial residual = 0, Final residual = 0, No Iterations 0
time step continuity errors : sum local = 0, global = 0, cumulative = 0

>>>>>>>>>>>>>>>>>>>>>>>>>>>>>>> A*x=b: (yes source term)
b:
16
(
0.02773310922074807
0.02773076937097821
0.02773076937097822
0.02773310922074813
0.02773076937097817
0.02772842970873628
0.02772842970873626
0.02773076937097822
0.0277307693709782
0.02772842970873626
0.02772842970873626
0.02773076937097819
0.02773310922074806
0.02773076937097817
0.0277307693709782
0.02773310922074813
)

diagonalPBiCGStab:  Solving for Sh2, Initial residual = 0.9795616389018447, Final residual = 5.318609947836282e-27, No Iterations 3
ExecutionTime = 0.19 s  ClockTime = 0 s

Courant Number mean: 0 max: 0
deltaT = 1
Time = 483

PIMPLE: iteration 1
smoothSolver:  Solving for Ux, Initial residual = 0, Final residual = 0, No Iterations 0
smoothSolver:  Solving for Uy, Initial residual = 0, Final residual = 0, No Iterations 0
GAMG:  Solving for p, Initial residual = 0, Final residual = 0, No Iterations 0
time step continuity errors : sum local = 0, global = 0, cumulative = 0

>>>>>>>>>>>>>>>>>>>>>>>>>>>>>>> A*x=b: (yes source term)
b:
16
(
0.02778933448341827
0.02778699238420138
0.0277869923842014
0.02778933448341832
0.02778699238420135
0.02778465047215438
0.02778465047215437
0.0277869923842014
0.02778699238420138
0.02778465047215437
0.02778465047215437
0.02778699238420137
0.02778933448341826
0.02778699238420135
0.02778699238420138
0.02778933448341832
)

diagonalPBiCGStab:  Solving for Sh2, Initial residual = 0.979542391017255, Final residual = 2.636312514861565e-26, No Iterations 3
ExecutionTime = 0.19 s  ClockTime = 0 s

Courant Number mean: 0 max: 0
deltaT = 1
Time = 484

PIMPLE: iteration 1
smoothSolver:  Solving for Ux, Initial residual = 0, Final residual = 0, No Iterations 0
smoothSolver:  Solving for Uy, Initial residual = 0, Final residual = 0, No Iterations 0
GAMG:  Solving for p, Initial residual = 0, Final residual = 0, No Iterations 0
time step continuity errors : sum local = 0, global = 0, cumulative = 0

>>>>>>>>>>>>>>>>>>>>>>>>>>>>>>> A*x=b: (yes source term)
b:
16
(
0.02784555973963072
0.02784321539742404
0.02784321539742406
0.02784555973963078
0.02784321539742401
0.0278408712420292
0.02784087124202918
0.02784321539742406
0.02784321539742404
0.02784087124202918
0.02784087124202918
0.02784321539742403
0.02784555973963071
0.02784321539742401
0.02784321539742404
0.02784555973963078
)

diagonalPBiCGStab:  Solving for Sh2, Initial residual = 0.9795231991362319, Final residual = 9.912389136767957e-27, No Iterations 3
ExecutionTime = 0.19 s  ClockTime = 0 s

Courant Number mean: 0 max: 0
deltaT = 1
Time = 485

PIMPLE: iteration 1
smoothSolver:  Solving for Ux, Initial residual = 0, Final residual = 0, No Iterations 0
smoothSolver:  Solving for Uy, Initial residual = 0, Final residual = 0, No Iterations 0
GAMG:  Solving for p, Initial residual = 0, Final residual = 0, No Iterations 0
time step continuity errors : sum local = 0, global = 0, cumulative = 0

>>>>>>>>>>>>>>>>>>>>>>>>>>>>>>> A*x=b: (yes source term)
b:
16
(
0.02790178498940397
0.02789943841064619
0.0278994384106462
0.02790178498940402
0.02789943841064616
0.02789709201834219
0.02789709201834218
0.0278994384106462
0.02789943841064618
0.02789709201834218
0.02789709201834218
0.02789943841064617
0.02790178498940396
0.02789943841064616
0.02789943841064618
0.02790178498940402
)

diagonalPBiCGStab:  Solving for Sh2, Initial residual = 0.9795040630938384, Final residual = 5.294150695848773e-27, No Iterations 3
ExecutionTime = 0.19 s  ClockTime = 0 s

Courant Number mean: 0 max: 0
deltaT = 1
Time = 486

PIMPLE: iteration 1
smoothSolver:  Solving for Ux, Initial residual = 0, Final residual = 0, No Iterations 0
smoothSolver:  Solving for Uy, Initial residual = 0, Final residual = 0, No Iterations 0
GAMG:  Solving for p, Initial residual = 0, Final residual = 0, No Iterations 0
time step continuity errors : sum local = 0, global = 0, cumulative = 0

>>>>>>>>>>>>>>>>>>>>>>>>>>>>>>> A*x=b: (yes source term)
b:
16
(
0.02795801023275649
0.02795566142386782
0.02795566142386783
0.02795801023275655
0.02795566142386779
0.02795331280107489
0.02795331280107487
0.02795566142386783
0.02795566142386782
0.02795331280107488
0.02795331280107488
0.0279556614238678
0.02795801023275648
0.02795566142386779
0.02795566142386782
0.02795801023275655
)

diagonalPBiCGStab:  Solving for Sh2, Initial residual = 0.9794849827252804, Final residual = 5.209535976064027e-27, No Iterations 3
ExecutionTime = 0.19 s  ClockTime = 0 s

Courant Number mean: 0 max: 0
deltaT = 1
Time = 487

PIMPLE: iteration 1
smoothSolver:  Solving for Ux, Initial residual = 0, Final residual = 0, No Iterations 0
smoothSolver:  Solving for Uy, Initial residual = 0, Final residual = 0, No Iterations 0
GAMG:  Solving for p, Initial residual = 0, Final residual = 0, No Iterations 0
time step continuity errors : sum local = 0, global = 0, cumulative = 0

>>>>>>>>>>>>>>>>>>>>>>>>>>>>>>> A*x=b: (yes source term)
b:
16
(
0.02801423546970673
0.02801188443708894
0.02801188443708895
0.02801423546970678
0.02801188443708891
0.02800953359020886
0.02800953359020884
0.02801188443708895
0.02801188443708893
0.02800953359020885
0.02800953359020885
0.02801188443708892
0.02801423546970672
0.02801188443708891
0.02801188443708893
0.02801423546970678
)

diagonalPBiCGStab:  Solving for Sh2, Initial residual = 0.9794659578665085, Final residual = 2.336096481517563e-26, No Iterations 3
ExecutionTime = 0.19 s  ClockTime = 0 s

Courant Number mean: 0 max: 0
deltaT = 1
Time = 488

PIMPLE: iteration 1
smoothSolver:  Solving for Ux, Initial residual = 0, Final residual = 0, No Iterations 0
smoothSolver:  Solving for Uy, Initial residual = 0, Final residual = 0, No Iterations 0
GAMG:  Solving for p, Initial residual = 0, Final residual = 0, No Iterations 0
time step continuity errors : sum local = 0, global = 0, cumulative = 0

>>>>>>>>>>>>>>>>>>>>>>>>>>>>>>> A*x=b: (yes source term)
b:
16
(
0.02807046070027306
0.02806810745030954
0.02806810745030956
0.02807046070027311
0.02806810745030951
0.02806575438572573
0.02806575438572572
0.02806810745030956
0.02806810745030953
0.02806575438572572
0.02806575438572572
0.02806810745030953
0.02807046070027304
0.02806810745030951
0.02806810745030953
0.02807046070027311
)

diagonalPBiCGStab:  Solving for Sh2, Initial residual = 0.9794469883538043, Final residual = 1.515716965967365e-26, No Iterations 3
ExecutionTime = 0.19 s  ClockTime = 0 s

Courant Number mean: 0 max: 0
deltaT = 1
Time = 489

PIMPLE: iteration 1
smoothSolver:  Solving for Ux, Initial residual = 0, Final residual = 0, No Iterations 0
smoothSolver:  Solving for Uy, Initial residual = 0, Final residual = 0, No Iterations 0
GAMG:  Solving for p, Initial residual = 0, Final residual = 0, No Iterations 0
time step continuity errors : sum local = 0, global = 0, cumulative = 0

>>>>>>>>>>>>>>>>>>>>>>>>>>>>>>> A*x=b: (yes source term)
b:
16
(
0.02812668592447379
0.02812433046352963
0.02812433046352965
0.02812668592447384
0.0281243304635296
0.02812197518760719
0.02812197518760718
0.02812433046352964
0.02812433046352962
0.02812197518760718
0.02812197518760718
0.02812433046352962
0.02812668592447378
0.0281243304635296
0.02812433046352962
0.02812668592447384
)

diagonalPBiCGStab:  Solving for Sh2, Initial residual = 0.9794280740241523, Final residual = 2.168200001037675e-26, No Iterations 3
ExecutionTime = 0.19 s  ClockTime = 0 s

Courant Number mean: 0 max: 0
deltaT = 1
Time = 490

PIMPLE: iteration 1
smoothSolver:  Solving for Ux, Initial residual = 0, Final residual = 0, No Iterations 0
smoothSolver:  Solving for Uy, Initial residual = 0, Final residual = 0, No Iterations 0
GAMG:  Solving for p, Initial residual = 0, Final residual = 0, No Iterations 0
time step continuity errors : sum local = 0, global = 0, cumulative = 0

>>>>>>>>>>>>>>>>>>>>>>>>>>>>>>> A*x=b: (yes source term)
b:
16
(
0.02818291114232721
0.0281805534767492
0.02818055347674922
0.02818291114232726
0.02818055347674917
0.02817819599583496
0.02817819599583495
0.02818055347674922
0.02818055347674919
0.02817819599583495
0.02817819599583495
0.02818055347674919
0.0281829111423272
0.02818055347674917
0.02818055347674919
0.02818291114232726
)

diagonalPBiCGStab:  Solving for Sh2, Initial residual = 0.9794092147148022, Final residual = 4.481182310270092e-26, No Iterations 3
ExecutionTime = 0.19 s  ClockTime = 0 s

Courant Number mean: 0 max: 0
deltaT = 1
Time = 491

PIMPLE: iteration 1
smoothSolver:  Solving for Ux, Initial residual = 0, Final residual = 0, No Iterations 0
smoothSolver:  Solving for Uy, Initial residual = 0, Final residual = 0, No Iterations 0
GAMG:  Solving for p, Initial residual = 0, Final residual = 0, No Iterations 0
time step continuity errors : sum local = 0, global = 0, cumulative = 0

>>>>>>>>>>>>>>>>>>>>>>>>>>>>>>> A*x=b: (yes source term)
b:
16
(
0.02823913635385155
0.02823677648996826
0.02823677648996827
0.0282391363538516
0.02823677648996823
0.02823441681039082
0.02823441681039081
0.02823677648996827
0.02823677648996824
0.02823441681039081
0.02823441681039081
0.02823677648996824
0.02823913635385153
0.02823677648996823
0.02823677648996824
0.0282391363538516
)

diagonalPBiCGStab:  Solving for Sh2, Initial residual = 0.9793904102636041, Final residual = 2.960638094916969e-26, No Iterations 3
ExecutionTime = 0.19 s  ClockTime = 0 s

Courant Number mean: 0 max: 0
deltaT = 1
Time = 492

PIMPLE: iteration 1
smoothSolver:  Solving for Ux, Initial residual = 0, Final residual = 0, No Iterations 0
smoothSolver:  Solving for Uy, Initial residual = 0, Final residual = 0, No Iterations 0
GAMG:  Solving for p, Initial residual = 0, Final residual = 0, No Iterations 0
time step continuity errors : sum local = 0, global = 0, cumulative = 0

>>>>>>>>>>>>>>>>>>>>>>>>>>>>>>> A*x=b: (yes source term)
b:
16
(
0.02829536155906496
0.02829299950318681
0.02829299950318682
0.028295361559065
0.02829299950318678
0.02829063763125663
0.02829063763125662
0.02829299950318682
0.02829299950318679
0.02829063763125662
0.02829063763125662
0.02829299950318679
0.02829536155906494
0.02829299950318678
0.02829299950318679
0.028295361559065
)

diagonalPBiCGStab:  Solving for Sh2, Initial residual = 0.9793716605089109, Final residual = 1.63571368728133e-27, No Iterations 3
ExecutionTime = 0.19 s  ClockTime = 0 s

Courant Number mean: 0 max: 0
deltaT = 1
Time = 493

PIMPLE: iteration 1
smoothSolver:  Solving for Ux, Initial residual = 0, Final residual = 0, No Iterations 0
smoothSolver:  Solving for Uy, Initial residual = 0, Final residual = 0, No Iterations 0
GAMG:  Solving for p, Initial residual = 0, Final residual = 0, No Iterations 0
time step continuity errors : sum local = 0, global = 0, cumulative = 0

>>>>>>>>>>>>>>>>>>>>>>>>>>>>>>> A*x=b: (yes source term)
b:
16
(
0.02835158675798554
0.02834922251640484
0.02834922251640485
0.02835158675798559
0.0283492225164048
0.02834685845841426
0.02834685845841426
0.02834922251640485
0.02834922251640482
0.02834685845841426
0.02834685845841426
0.02834922251640482
0.02835158675798553
0.0283492225164048
0.02834922251640482
0.02835158675798559
)

diagonalPBiCGStab:  Solving for Sh2, Initial residual = 0.9793529652898193, Final residual = 3.157893227756391e-26, No Iterations 3
ExecutionTime = 0.19 s  ClockTime = 0 s

Courant Number mean: 0 max: 0
deltaT = 1
Time = 494

PIMPLE: iteration 1
smoothSolver:  Solving for Ux, Initial residual = 0, Final residual = 0, No Iterations 0
smoothSolver:  Solving for Uy, Initial residual = 0, Final residual = 0, No Iterations 0
GAMG:  Solving for p, Initial residual = 0, Final residual = 0, No Iterations 0
time step continuity errors : sum local = 0, global = 0, cumulative = 0

>>>>>>>>>>>>>>>>>>>>>>>>>>>>>>> A*x=b: (yes source term)
b:
16
(
0.02840781195063139
0.02840544552962235
0.02840544552962235
0.02840781195063144
0.02840544552962232
0.02840307929184567
0.02840307929184566
0.02840544552962235
0.02840544552962233
0.02840307929184565
0.02840307929184565
0.02840544552962234
0.02840781195063137
0.02840544552962232
0.02840544552962233
0.02840781195063144
)

diagonalPBiCGStab:  Solving for Sh2, Initial residual = 0.9793343244452823, Final residual = 1.606680383777102e-26, No Iterations 3
ExecutionTime = 0.19 s  ClockTime = 0 s

Courant Number mean: 0 max: 0
deltaT = 1
Time = 495

PIMPLE: iteration 1
smoothSolver:  Solving for Ux, Initial residual = 0, Final residual = 0, No Iterations 0
smoothSolver:  Solving for Uy, Initial residual = 0, Final residual = 0, No Iterations 0
GAMG:  Solving for p, Initial residual = 0, Final residual = 0, No Iterations 0
time step continuity errors : sum local = 0, global = 0, cumulative = 0

>>>>>>>>>>>>>>>>>>>>>>>>>>>>>>> A*x=b: (yes source term)
b:
16
(
0.0284640371370205
0.02846166854283934
0.02846166854283934
0.02846403713702054
0.02846166854283932
0.02845930013153283
0.02845930013153282
0.02846166854283934
0.02846166854283932
0.02845930013153282
0.02845930013153282
0.02846166854283933
0.02846403713702048
0.02846166854283932
0.02846166854283932
0.02846403713702054
)

diagonalPBiCGStab:  Solving for Sh2, Initial residual = 0.9793157378152514, Final residual = 6.162244697798165e-27, No Iterations 3
ExecutionTime = 0.19 s  ClockTime = 0 s

Courant Number mean: 0 max: 0
deltaT = 1
Time = 496

PIMPLE: iteration 1
smoothSolver:  Solving for Ux, Initial residual = 0, Final residual = 0, No Iterations 0
smoothSolver:  Solving for Uy, Initial residual = 0, Final residual = 0, No Iterations 0
GAMG:  Solving for p, Initial residual = 0, Final residual = 0, No Iterations 0
time step continuity errors : sum local = 0, global = 0, cumulative = 0

>>>>>>>>>>>>>>>>>>>>>>>>>>>>>>> A*x=b: (yes source term)
b:
16
(
0.02852026231717084
0.02851789155605582
0.02851789155605582
0.02852026231717088
0.0285178915560558
0.0285155209774578
0.02851552097745779
0.02851789155605582
0.0285178915560558
0.02851552097745778
0.02851552097745778
0.02851789155605581
0.02852026231717082
0.0285178915560558
0.0285178915560558
0.02852026231717088
)

diagonalPBiCGStab:  Solving for Sh2, Initial residual = 0.9792972052398274, Final residual = 6.934657363257956e-27, No Iterations 3
ExecutionTime = 0.19 s  ClockTime = 0 s

Courant Number mean: 0 max: 0
deltaT = 1
Time = 497

PIMPLE: iteration 1
smoothSolver:  Solving for Ux, Initial residual = 0, Final residual = 0, No Iterations 0
smoothSolver:  Solving for Uy, Initial residual = 0, Final residual = 0, No Iterations 0
GAMG:  Solving for p, Initial residual = 0, Final residual = 0, No Iterations 0
time step continuity errors : sum local = 0, global = 0, cumulative = 0

>>>>>>>>>>>>>>>>>>>>>>>>>>>>>>> A*x=b: (yes source term)
b:
16
(
0.02857648749110031
0.02857411456927178
0.02857411456927178
0.02857648749110036
0.02857411456927176
0.02857174182960267
0.02857174182960266
0.02857411456927178
0.02857411456927176
0.02857174182960266
0.02857174182960266
0.02857411456927178
0.0285764874911003
0.02857411456927176
0.02857411456927176
0.02857648749110036
)

diagonalPBiCGStab:  Solving for Sh2, Initial residual = 0.979278726560133, Final residual = 1.268010461225296e-26, No Iterations 3
ExecutionTime = 0.19 s  ClockTime = 0 s

Courant Number mean: 0 max: 0
deltaT = 1
Time = 498

PIMPLE: iteration 1
smoothSolver:  Solving for Ux, Initial residual = 0, Final residual = 0, No Iterations 0
smoothSolver:  Solving for Uy, Initial residual = 0, Final residual = 0, No Iterations 0
GAMG:  Solving for p, Initial residual = 0, Final residual = 0, No Iterations 0
time step continuity errors : sum local = 0, global = 0, cumulative = 0

>>>>>>>>>>>>>>>>>>>>>>>>>>>>>>> A*x=b: (yes source term)
b:
16
(
0.02863271265882678
0.02863033758248723
0.02863033758248723
0.02863271265882682
0.02863033758248722
0.0286279626879496
0.02862796268794958
0.02863033758248723
0.02863033758248722
0.02862796268794959
0.02862796268794959
0.02863033758248723
0.02863271265882676
0.02863033758248721
0.02863033758248722
0.02863271265882682
)

diagonalPBiCGStab:  Solving for Sh2, Initial residual = 0.9792603016171149, Final residual = 1.078482656391842e-26, No Iterations 3
ExecutionTime = 0.19 s  ClockTime = 0 s

Courant Number mean: 0 max: 0
deltaT = 1
Time = 499

PIMPLE: iteration 1
smoothSolver:  Solving for Ux, Initial residual = 0, Final residual = 0, No Iterations 0
smoothSolver:  Solving for Uy, Initial residual = 0, Final residual = 0, No Iterations 0
GAMG:  Solving for p, Initial residual = 0, Final residual = 0, No Iterations 0
time step continuity errors : sum local = 0, global = 0, cumulative = 0

>>>>>>>>>>>>>>>>>>>>>>>>>>>>>>> A*x=b: (yes source term)
b:
16
(
0.02868893782036805
0.02868656059570217
0.02868656059570217
0.02868893782036809
0.02868656059570215
0.02868418355248077
0.02868418355248075
0.02868656059570217
0.02868656059570215
0.02868418355248076
0.02868418355248076
0.02868656059570216
0.02868893782036803
0.02868656059570214
0.02868656059570215
0.02868893782036809
)

diagonalPBiCGStab:  Solving for Sh2, Initial residual = 0.9792419302526155, Final residual = 6.861845414663881e-27, No Iterations 3
ExecutionTime = 0.19 s  ClockTime = 0 s

Courant Number mean: 0 max: 0
deltaT = 1
Time = 500

PIMPLE: iteration 1
smoothSolver:  Solving for Ux, Initial residual = 0, Final residual = 0, No Iterations 0
smoothSolver:  Solving for Uy, Initial residual = 0, Final residual = 0, No Iterations 0
GAMG:  Solving for p, Initial residual = 0, Final residual = 0, No Iterations 0
time step continuity errors : sum local = 0, global = 0, cumulative = 0

>>>>>>>>>>>>>>>>>>>>>>>>>>>>>>> A*x=b: (yes source term)
b:
16
(
0.02874516297574187
0.02874278360891659
0.02874278360891659
0.02874516297574192
0.02874278360891658
0.02874040442317845
0.02874040442317843
0.02874278360891659
0.02874278360891658
0.02874040442317843
0.02874040442317843
0.02874278360891659
0.02874516297574186
0.02874278360891657
0.02874278360891658
0.02874516297574192
)

diagonalPBiCGStab:  Solving for Sh2, Initial residual = 0.9792236123087391, Final residual = 5.588346519948442e-27, No Iterations 3
ExecutionTime = 0.2 s  ClockTime = 0 s

End

