/*---------------------------------------------------------------------------*\
| =========                 |                                                 |
| \\      /  F ield         | OpenFOAM: The Open Source CFD Toolbox           |
|  \\    /   O peration     | Version:  2206                                  |
|   \\  /    A nd           | Website:  www.openfoam.com                      |
|    \\/     M anipulation  |                                                 |
\*---------------------------------------------------------------------------*/
Build  : _76d719d1-20220624 OPENFOAM=2206 version=v2206
Arch   : "LSB;label=64;scalar=64"
Exec   : reactingFoam
Date   : Feb 13 2024
Time   : 15:58:22
Host   : DESKTOP-BTFG136
PID    : 13216
I/O    : uncollated
Case   : /home/noreff/works/OpenFOAM-user/v2206/Projects/tests/counterFlowFlame2D
nProcs : 1
trapFpe: Floating point exception trapping enabled (FOAM_SIGFPE).
fileModificationChecking : Monitoring run-time modified files using timeStampMaster (fileModificationSkew 5, maxFileModificationPolls 20)
allowSystemOperations : Allowing user-supplied system call operations

// * * * * * * * * * * * * * * * * * * * * * * * * * * * * * * * * * * * * * //
Create time

Create mesh for time = 0


PIMPLE: Operating solver in PISO mode

Reading thermophysical properties

Selecting thermodynamics package 
{
    type            hePsiThermo;
    mixture         reactingMixture;
    transport       sutherland;
    thermo          janaf;
    energy          sensibleEnthalpy;
    equationOfState perfectGas;
    specie          specie;
}

Selecting chemistryReader foamChemistryReader
Reading field U

Reading/calculating face flux field phi

Creating turbulence model.

Selecting turbulence model type laminar
Selecting laminar stress model Stokes
Creating reaction model

Selecting combustion model laminar
Selecting chemistry solver 
{
    solver          EulerImplicit;
    method          standard;
}

StandardChemistryModel: Number of species = 5 and reactions = 1
    using integrated reaction rate
Creating field dpdt

Creating field kinetic energy K

No MRF models present

No finite volume options present
Courant Number mean: 2.73409e-05 max: 0.00175681

BilgerMixtureFraction BilgerMixtureFraction1:

Starting time loop

Courant Number mean: 2.73409e-05 max: 0.00175681
deltaT = 1.20005e-06
Time = 1.20005e-06

diagonal:  Solving for rho, Initial residual = 0, Final residual = 0, No Iterations 0
PIMPLE: iteration 1
Yi.dim -> [0 0 0 0 0 0 0]
[1 -3 -1 0 0 0 0]
[0 3 -1 0 0 0 0]
[1 0 -1 0 0 0 0]

[1 -3 -1 0 0 0 0]
DILUPBiCGStab:  Solving for O2, Initial residual = 1, Final residual = 1.02723e-09, No Iterations 1
Yi.dim -> [0 0 0 0 0 0 0]
[1 -3 -1 0 0 0 0]
[0 3 -1 0 0 0 0]
[1 0 -1 0 0 0 0]

[1 -3 -1 0 0 0 0]
DILUPBiCGStab:  Solving for H2O, Initial residual = 0, Final residual = 0, No Iterations 0
Yi.dim -> [0 0 0 0 0 0 0]
[1 -3 -1 0 0 0 0]
[0 3 -1 0 0 0 0]
[1 0 -1 0 0 0 0]

[1 -3 -1 0 0 0 0]
DILUPBiCGStab:  Solving for CH4, Initial residual = 1, Final residual = 1.03409e-09, No Iterations 1
Yi.dim -> [0 0 0 0 0 0 0]
[1 -3 -1 0 0 0 0]
[0 3 -1 0 0 0 0]
[1 0 -1 0 0 0 0]

[1 -3 -1 0 0 0 0]
DILUPBiCGStab:  Solving for CO2, Initial residual = 0, Final residual = 0, No Iterations 0
DILUPBiCGStab:  Solving for h, Initial residual = 1, Final residual = 4.1056e-09, No Iterations 1
min/max(T) = 293, 2000
DICPCG:  Solving for p, Initial residual = 1, Final residual = 0.0488794, No Iterations 5
diagonal:  Solving for rho, Initial residual = 0, Final residual = 0, No Iterations 0
time step continuity errors : sum local = 0.000333782, global = -0.000330478, cumulative = -0.000330478
DICPCG:  Solving for p, Initial residual = 0.0147855, Final residual = 6.72973e-07, No Iterations 12
diagonal:  Solving for rho, Initial residual = 0, Final residual = 0, No Iterations 0
time step continuity errors : sum local = 0.000331278, global = -0.000331278, cumulative = -0.000661757
ExecutionTime = 0.04 s  ClockTime = 0 s

Courant Number mean: 0.000298566 max: 0.00484895
deltaT = 1.44013e-06
Time = 2.64017e-06

diagonal:  Solving for rho, Initial residual = 0, Final residual = 0, No Iterations 0
PIMPLE: iteration 1
Yi.dim -> [0 0 0 0 0 0 0]
[1 -3 -1 0 0 0 0]
[0 3 -1 0 0 0 0]
[1 0 -1 0 0 0 0]

[1 -3 -1 0 0 0 0]
DILUPBiCGStab:  Solving for O2, Initial residual = 0.231764, Final residual = 6.83124e-10, No Iterations 1
Yi.dim -> [0 0 0 0 0 0 0]
[1 -3 -1 0 0 0 0]
[0 3 -1 0 0 0 0]
[1 0 -1 0 0 0 0]

[1 -3 -1 0 0 0 0]
DILUPBiCGStab:  Solving for H2O, Initial residual = 6.85246e-177, Final residual = 6.85246e-177, No Iterations 0
Yi.dim -> [0 0 0 0 0 0 0]
[1 -3 -1 0 0 0 0]
[0 3 -1 0 0 0 0]
[1 0 -1 0 0 0 0]

[1 -3 -1 0 0 0 0]
DILUPBiCGStab:  Solving for CH4, Initial residual = 0.230703, Final residual = 5.50154e-10, No Iterations 1
Yi.dim -> [0 0 0 0 0 0 0]
[1 -3 -1 0 0 0 0]
[0 3 -1 0 0 0 0]
[1 0 -1 0 0 0 0]

[1 -3 -1 0 0 0 0]
DILUPBiCGStab:  Solving for CO2, Initial residual = 8.37002e-177, Final residual = 8.37002e-177, No Iterations 0
DILUPBiCGStab:  Solving for h, Initial residual = 0.235483, Final residual = 2.26448e-09, No Iterations 1
min/max(T) = 293, 2000.26
DICPCG:  Solving for p, Initial residual = 0.803853, Final residual = 0.05768, No Iterations 5
diagonal:  Solving for rho, Initial residual = 0, Final residual = 0, No Iterations 0
time step continuity errors : sum local = 3.8835e-05, global = -8.44978e-06, cumulative = -0.000670206
DICPCG:  Solving for p, Initial residual = 0.0304777, Final residual = 4.41601e-07, No Iterations 16
diagonal:  Solving for rho, Initial residual = 0, Final residual = 0, No Iterations 0
time step continuity errors : sum local = 6.25251e-10, global = -6.4913e-11, cumulative = -0.000670206
ExecutionTime = 0.04 s  ClockTime = 0 s

Courant Number mean: 0.0012075 max: 0.017768
deltaT = 1.72815e-06
Time = 4.36833e-06

diagonal:  Solving for rho, Initial residual = 0, Final residual = 0, No Iterations 0
PIMPLE: iteration 1
Yi.dim -> [0 0 0 0 0 0 0]
[1 -3 -1 0 0 0 0]
[0 3 -1 0 0 0 0]
[1 0 -1 0 0 0 0]

[1 -3 -1 0 0 0 0]
DILUPBiCGStab:  Solving for O2, Initial residual = 0.138618, Final residual = 6.50667e-10, No Iterations 1
Yi.dim -> [0 0 0 0 0 0 0]
[1 -3 -1 0 0 0 0]
[0 3 -1 0 0 0 0]
[1 0 -1 0 0 0 0]

[1 -3 -1 0 0 0 0]
DILUPBiCGStab:  Solving for H2O, Initial residual = 1.36307e-167, Final residual = 1.36307e-167, No Iterations 0
Yi.dim -> [0 0 0 0 0 0 0]
[1 -3 -1 0 0 0 0]
[0 3 -1 0 0 0 0]
[1 0 -1 0 0 0 0]

[1 -3 -1 0 0 0 0]
DILUPBiCGStab:  Solving for CH4, Initial residual = 0.134912, Final residual = 7.35043e-10, No Iterations 1
Yi.dim -> [0 0 0 0 0 0 0]
[1 -3 -1 0 0 0 0]
[0 3 -1 0 0 0 0]
[1 0 -1 0 0 0 0]

[1 -3 -1 0 0 0 0]
DILUPBiCGStab:  Solving for CO2, Initial residual = 1.66494e-167, Final residual = 1.66494e-167, No Iterations 0
DILUPBiCGStab:  Solving for h, Initial residual = 0.257788, Final residual = 5.9354e-09, No Iterations 1
min/max(T) = 293, 2000.03
DICPCG:  Solving for p, Initial residual = 0.527777, Final residual = 0.0411185, No Iterations 4
diagonal:  Solving for rho, Initial residual = 0, Final residual = 0, No Iterations 0
time step continuity errors : sum local = 0.000105772, global = -2.58826e-05, cumulative = -0.000696089
DICPCG:  Solving for p, Initial residual = 0.0257463, Final residual = 5.4638e-07, No Iterations 18
diagonal:  Solving for rho, Initial residual = 0, Final residual = 0, No Iterations 0
time step continuity errors : sum local = 2.37518e-09, global = -2.42519e-10, cumulative = -0.000696089
ExecutionTime = 0.05 s  ClockTime = 0 s

Courant Number mean: 0.00378564 max: 0.0348585
deltaT = 2.07378e-06
Time = 6.44211e-06

diagonal:  Solving for rho, Initial residual = 0, Final residual = 0, No Iterations 0
PIMPLE: iteration 1
Yi.dim -> [0 0 0 0 0 0 0]
[1 -3 -1 0 0 0 0]
[0 3 -1 0 0 0 0]
[1 0 -1 0 0 0 0]

[1 -3 -1 0 0 0 0]
DILUPBiCGStab:  Solving for O2, Initial residual = 0.103199, Final residual = 9.75732e-10, No Iterations 1
Yi.dim -> [0 0 0 0 0 0 0]
[1 -3 -1 0 0 0 0]
[0 3 -1 0 0 0 0]
[1 0 -1 0 0 0 0]

[1 -3 -1 0 0 0 0]
DILUPBiCGStab:  Solving for H2O, Initial residual = 1.02797e-158, Final residual = 1.02797e-158, No Iterations 0
Yi.dim -> [0 0 0 0 0 0 0]
[1 -3 -1 0 0 0 0]
[0 3 -1 0 0 0 0]
[1 0 -1 0 0 0 0]

[1 -3 -1 0 0 0 0]
DILUPBiCGStab:  Solving for CH4, Initial residual = 0.100166, Final residual = 1.42281e-09, No Iterations 1
Yi.dim -> [0 0 0 0 0 0 0]
[1 -3 -1 0 0 0 0]
[0 3 -1 0 0 0 0]
[1 0 -1 0 0 0 0]

[1 -3 -1 0 0 0 0]
DILUPBiCGStab:  Solving for CO2, Initial residual = 1.25563e-158, Final residual = 1.25563e-158, No Iterations 0
DILUPBiCGStab:  Solving for h, Initial residual = 0.207781, Final residual = 1.24519e-08, No Iterations 1
min/max(T) = 293, 2000
DICPCG:  Solving for p, Initial residual = 0.128472, Final residual = 0.0114647, No Iterations 6
diagonal:  Solving for rho, Initial residual = 0, Final residual = 0, No Iterations 0
time step continuity errors : sum local = 9.06647e-05, global = -1.46473e-05, cumulative = -0.000710737
DICPCG:  Solving for p, Initial residual = 0.00846673, Final residual = 6.66383e-07, No Iterations 18
diagonal:  Solving for rho, Initial residual = 0, Final residual = 0, No Iterations 0
time step continuity errors : sum local = 7.60431e-09, global = -2.15478e-11, cumulative = -0.000710737
ExecutionTime = 0.06 s  ClockTime = 0 s

Courant Number mean: 0.00758971 max: 0.0490492
deltaT = 2.48844e-06
Time = 8.93055e-06

diagonal:  Solving for rho, Initial residual = 0, Final residual = 0, No Iterations 0
PIMPLE: iteration 1
Yi.dim -> [0 0 0 0 0 0 0]
[1 -3 -1 0 0 0 0]
[0 3 -1 0 0 0 0]
[1 0 -1 0 0 0 0]

[1 -3 -1 0 0 0 0]
DILUPBiCGStab:  Solving for O2, Initial residual = 0.084757, Final residual = 1.75378e-09, No Iterations 1
Yi.dim -> [0 0 0 0 0 0 0]
[1 -3 -1 0 0 0 0]
[0 3 -1 0 0 0 0]
[1 0 -1 0 0 0 0]

[1 -3 -1 0 0 0 0]
DILUPBiCGStab:  Solving for H2O, Initial residual = 1.87995e-149, Final residual = 1.87995e-149, No Iterations 0
Yi.dim -> [0 0 0 0 0 0 0]
[1 -3 -1 0 0 0 0]
[0 3 -1 0 0 0 0]
[1 0 -1 0 0 0 0]

[1 -3 -1 0 0 0 0]
DILUPBiCGStab:  Solving for CH4, Initial residual = 0.0825695, Final residual = 2.79853e-09, No Iterations 1
Yi.dim -> [0 0 0 0 0 0 0]
[1 -3 -1 0 0 0 0]
[0 3 -1 0 0 0 0]
[1 0 -1 0 0 0 0]

[1 -3 -1 0 0 0 0]
DILUPBiCGStab:  Solving for CO2, Initial residual = 2.29629e-149, Final residual = 2.29629e-149, No Iterations 0
DILUPBiCGStab:  Solving for h, Initial residual = 0.16327, Final residual = 3.23825e-08, No Iterations 1
min/max(T) = 293, 1999.98
DICPCG:  Solving for p, Initial residual = 0.0578595, Final residual = 0.00434197, No Iterations 7
diagonal:  Solving for rho, Initial residual = 0, Final residual = 0, No Iterations 0
time step continuity errors : sum local = 7.28406e-05, global = -1.91424e-05, cumulative = -0.000729879
DICPCG:  Solving for p, Initial residual = 0.00385103, Final residual = 6.85073e-07, No Iterations 20
diagonal:  Solving for rho, Initial residual = 0, Final residual = 0, No Iterations 0
time step continuity errors : sum local = 1.38445e-08, global = -1.18093e-10, cumulative = -0.000729879
ExecutionTime = 0.07 s  ClockTime = 0 s

Courant Number mean: 0.0124391 max: 0.0642302
deltaT = 2.98597e-06
Time = 1.19165e-05

diagonal:  Solving for rho, Initial residual = 0, Final residual = 0, No Iterations 0
PIMPLE: iteration 1
Yi.dim -> [0 0 0 0 0 0 0]
[1 -3 -1 0 0 0 0]
[0 3 -1 0 0 0 0]
[1 0 -1 0 0 0 0]

[1 -3 -1 0 0 0 0]
DILUPBiCGStab:  Solving for O2, Initial residual = 0.073267, Final residual = 3.25121e-09, No Iterations 1
Yi.dim -> [0 0 0 0 0 0 0]
[1 -3 -1 0 0 0 0]
[0 3 -1 0 0 0 0]
[1 0 -1 0 0 0 0]

[1 -3 -1 0 0 0 0]
DILUPBiCGStab:  Solving for H2O, Initial residual = 2.55541e-140, Final residual = 2.55541e-140, No Iterations 0
Yi.dim -> [0 0 0 0 0 0 0]
[1 -3 -1 0 0 0 0]
[0 3 -1 0 0 0 0]
[1 0 -1 0 0 0 0]

[1 -3 -1 0 0 0 0]
DILUPBiCGStab:  Solving for CH4, Initial residual = 0.0716364, Final residual = 5.09653e-09, No Iterations 1
Yi.dim -> [0 0 0 0 0 0 0]
[1 -3 -1 0 0 0 0]
[0 3 -1 0 0 0 0]
[1 0 -1 0 0 0 0]

[1 -3 -1 0 0 0 0]
DILUPBiCGStab:  Solving for CO2, Initial residual = 3.12134e-140, Final residual = 3.12134e-140, No Iterations 0
DILUPBiCGStab:  Solving for h, Initial residual = 0.137135, Final residual = 7.1159e-08, No Iterations 1
min/max(T) = 293, 1999.94
DICPCG:  Solving for p, Initial residual = 0.0345912, Final residual = 0.00279871, No Iterations 7
diagonal:  Solving for rho, Initial residual = 0, Final residual = 0, No Iterations 0
time step continuity errors : sum local = 7.79541e-05, global = -1.60826e-05, cumulative = -0.000745962
DICPCG:  Solving for p, Initial residual = 0.00320873, Final residual = 9.62438e-07, No Iterations 21
diagonal:  Solving for rho, Initial residual = 0, Final residual = 0, No Iterations 0
time step continuity errors : sum local = 2.76387e-08, global = -9.98088e-09, cumulative = -0.000745972
ExecutionTime = 0.08 s  ClockTime = 0 s

Courant Number mean: 0.0173877 max: 0.0781007
deltaT = 3.58253e-06
Time = 1.5499e-05

diagonal:  Solving for rho, Initial residual = 0, Final residual = 0, No Iterations 0
PIMPLE: iteration 1
Yi.dim -> [0 0 0 0 0 0 0]
[1 -3 -1 0 0 0 0]
[0 3 -1 0 0 0 0]
[1 0 -1 0 0 0 0]

[1 -3 -1 0 0 0 0]
DILUPBiCGStab:  Solving for O2, Initial residual = 0.065388, Final residual = 5.78567e-09, No Iterations 1
Yi.dim -> [0 0 0 0 0 0 0]
[1 -3 -1 0 0 0 0]
[0 3 -1 0 0 0 0]
[1 0 -1 0 0 0 0]

[1 -3 -1 0 0 0 0]
DILUPBiCGStab:  Solving for H2O, Initial residual = 9.62581e-132, Final residual = 9.62581e-132, No Iterations 0
Yi.dim -> [0 0 0 0 0 0 0]
[1 -3 -1 0 0 0 0]
[0 3 -1 0 0 0 0]
[1 0 -1 0 0 0 0]

[1 -3 -1 0 0 0 0]
DILUPBiCGStab:  Solving for CH4, Initial residual = 0.0642559, Final residual = 9.92858e-09, No Iterations 1
Yi.dim -> [0 0 0 0 0 0 0]
[1 -3 -1 0 0 0 0]
[0 3 -1 0 0 0 0]
[1 0 -1 0 0 0 0]

[1 -3 -1 0 0 0 0]
DILUPBiCGStab:  Solving for CO2, Initial residual = 1.17576e-131, Final residual = 1.17576e-131, No Iterations 0
DILUPBiCGStab:  Solving for h, Initial residual = 0.12204, Final residual = 1.46077e-07, No Iterations 1
min/max(T) = 293, 1999.87
DICPCG:  Solving for p, Initial residual = 0.0230402, Final residual = 0.00217947, No Iterations 8
diagonal:  Solving for rho, Initial residual = 0, Final residual = 0, No Iterations 0
time step continuity errors : sum local = 8.60417e-05, global = 1.97116e-05, cumulative = -0.00072626
DICPCG:  Solving for p, Initial residual = 0.00329841, Final residual = 6.18843e-07, No Iterations 28
diagonal:  Solving for rho, Initial residual = 0, Final residual = 0, No Iterations 0
time step continuity errors : sum local = 2.11115e-08, global = 1.13522e-10, cumulative = -0.00072626
ExecutionTime = 0.09 s  ClockTime = 0 s

Courant Number mean: 0.0210248 max: 0.08899
deltaT = 4.29811e-06
Time = 1.97972e-05

diagonal:  Solving for rho, Initial residual = 0, Final residual = 0, No Iterations 0
PIMPLE: iteration 1
Yi.dim -> [0 0 0 0 0 0 0]
[1 -3 -1 0 0 0 0]
[0 3 -1 0 0 0 0]
[1 0 -1 0 0 0 0]

[1 -3 -1 0 0 0 0]
DILUPBiCGStab:  Solving for O2, Initial residual = 0.0596581, Final residual = 1.01438e-08, No Iterations 1
Yi.dim -> [0 0 0 0 0 0 0]
[1 -3 -1 0 0 0 0]
[0 3 -1 0 0 0 0]
[1 0 -1 0 0 0 0]

[1 -3 -1 0 0 0 0]
DILUPBiCGStab:  Solving for H2O, Initial residual = 2.65135e-124, Final residual = 2.65135e-124, No Iterations 0
Yi.dim -> [0 0 0 0 0 0 0]
[1 -3 -1 0 0 0 0]
[0 3 -1 0 0 0 0]
[1 0 -1 0 0 0 0]

[1 -3 -1 0 0 0 0]
DILUPBiCGStab:  Solving for CH4, Initial residual = 0.0590279, Final residual = 1.72198e-08, No Iterations 1
Yi.dim -> [0 0 0 0 0 0 0]
[1 -3 -1 0 0 0 0]
[0 3 -1 0 0 0 0]
[1 0 -1 0 0 0 0]

[1 -3 -1 0 0 0 0]
DILUPBiCGStab:  Solving for CO2, Initial residual = 3.23852e-124, Final residual = 3.23852e-124, No Iterations 0
DILUPBiCGStab:  Solving for h, Initial residual = 0.111083, Final residual = 2.61764e-07, No Iterations 1
min/max(T) = 293, 1999.9
DICPCG:  Solving for p, Initial residual = 0.0159983, Final residual = 0.00150856, No Iterations 10
diagonal:  Solving for rho, Initial residual = 0, Final residual = 0, No Iterations 0
time step continuity errors : sum local = 6.77472e-05, global = 1.29364e-05, cumulative = -0.000713324
DICPCG:  Solving for p, Initial residual = 0.00405461, Final residual = 6.97537e-07, No Iterations 30
diagonal:  Solving for rho, Initial residual = 0, Final residual = 0, No Iterations 0
time step continuity errors : sum local = 1.75273e-08, global = 1.76005e-10, cumulative = -0.000713323
ExecutionTime = 0.1 s  ClockTime = 0 s

Courant Number mean: 0.0232067 max: 0.0964068
deltaT = 5.15773e-06
Time = 2.49549e-05

diagonal:  Solving for rho, Initial residual = 0, Final residual = 0, No Iterations 0
PIMPLE: iteration 1
Yi.dim -> [0 0 0 0 0 0 0]
[1 -3 -1 0 0 0 0]
[0 3 -1 0 0 0 0]
[1 0 -1 0 0 0 0]

[1 -3 -1 0 0 0 0]
DILUPBiCGStab:  Solving for O2, Initial residual = 0.0552837, Final residual = 1.85224e-08, No Iterations 1
Yi.dim -> [0 0 0 0 0 0 0]
[1 -3 -1 0 0 0 0]
[0 3 -1 0 0 0 0]
[1 0 -1 0 0 0 0]

[1 -3 -1 0 0 0 0]
DILUPBiCGStab:  Solving for H2O, Initial residual = 5.24555e-118, Final residual = 5.24555e-118, No Iterations 0
Yi.dim -> [0 0 0 0 0 0 0]
[1 -3 -1 0 0 0 0]
[0 3 -1 0 0 0 0]
[1 0 -1 0 0 0 0]

[1 -3 -1 0 0 0 0]
DILUPBiCGStab:  Solving for CH4, Initial residual = 0.0551955, Final residual = 2.56508e-08, No Iterations 1
Yi.dim -> [0 0 0 0 0 0 0]
[1 -3 -1 0 0 0 0]
[0 3 -1 0 0 0 0]
[1 0 -1 0 0 0 0]

[1 -3 -1 0 0 0 0]
DILUPBiCGStab:  Solving for CO2, Initial residual = 6.40724e-118, Final residual = 6.40724e-118, No Iterations 0
DILUPBiCGStab:  Solving for h, Initial residual = 0.102229, Final residual = 4.4846e-07, No Iterations 1
min/max(T) = 293, 2000.16
DICPCG:  Solving for p, Initial residual = 0.0292169, Final residual = 0.0025902, No Iterations 11
diagonal:  Solving for rho, Initial residual = 0, Final residual = 0, No Iterations 0
time step continuity errors : sum local = 8.32653e-05, global = -1.83493e-06, cumulative = -0.000715158
DICPCG:  Solving for p, Initial residual = 0.0140962, Final residual = 9.49873e-07, No Iterations 35
diagonal:  Solving for rho, Initial residual = 0, Final residual = 0, No Iterations 0
time step continuity errors : sum local = 7.05709e-09, global = -6.30899e-10, cumulative = -0.000715159
ExecutionTime = 0.11 s  ClockTime = 0 s

Courant Number mean: 0.0240384 max: 0.100052
deltaT = 6.18799e-06
Time = 3.11429e-05

diagonal:  Solving for rho, Initial residual = 0, Final residual = 0, No Iterations 0
PIMPLE: iteration 1
Yi.dim -> [0 0 0 0 0 0 0]
[1 -3 -1 0 0 0 0]
[0 3 -1 0 0 0 0]
[1 0 -1 0 0 0 0]

[1 -3 -1 0 0 0 0]
DILUPBiCGStab:  Solving for O2, Initial residual = 0.0517409, Final residual = 3.40996e-08, No Iterations 1
Yi.dim -> [0 0 0 0 0 0 0]
[1 -3 -1 0 0 0 0]
[0 3 -1 0 0 0 0]
[1 0 -1 0 0 0 0]

[1 -3 -1 0 0 0 0]
DILUPBiCGStab:  Solving for H2O, Initial residual = 1.77357e-111, Final residual = 1.77357e-111, No Iterations 0
Yi.dim -> [0 0 0 0 0 0 0]
[1 -3 -1 0 0 0 0]
[0 3 -1 0 0 0 0]
[1 0 -1 0 0 0 0]

[1 -3 -1 0 0 0 0]
DILUPBiCGStab:  Solving for CH4, Initial residual = 0.0522843, Final residual = 3.01596e-08, No Iterations 1
Yi.dim -> [0 0 0 0 0 0 0]
[1 -3 -1 0 0 0 0]
[0 3 -1 0 0 0 0]
[1 0 -1 0 0 0 0]

[1 -3 -1 0 0 0 0]
DILUPBiCGStab:  Solving for CO2, Initial residual = 2.16635e-111, Final residual = 2.16635e-111, No Iterations 0
DILUPBiCGStab:  Solving for h, Initial residual = 0.0917267, Final residual = 6.38331e-07, No Iterations 1
min/max(T) = 293, 2000.55
DICPCG:  Solving for p, Initial residual = 0.107149, Final residual = 0.00727739, No Iterations 13
diagonal:  Solving for rho, Initial residual = 0, Final residual = 0, No Iterations 0
time step continuity errors : sum local = 7.36098e-05, global = 5.62848e-06, cumulative = -0.00070953
DICPCG:  Solving for p, Initial residual = 0.00265174, Final residual = 8.74048e-07, No Iterations 34
diagonal:  Solving for rho, Initial residual = 0, Final residual = 0, No Iterations 0
time step continuity errors : sum local = 4.17506e-08, global = -2.6736e-09, cumulative = -0.000709533
ExecutionTime = 0.12 s  ClockTime = 0 s

Courant Number mean: 0.0247773 max: 0.0997596
deltaT = 7.42283e-06
Time = 3.85657e-05

diagonal:  Solving for rho, Initial residual = 0, Final residual = 0, No Iterations 0
PIMPLE: iteration 1
Yi.dim -> [0 0 0 0 0 0 0]
[1 -3 -1 0 0 0 0]
[0 3 -1 0 0 0 0]
[1 0 -1 0 0 0 0]

[1 -3 -1 0 0 0 0]
DILUPBiCGStab:  Solving for O2, Initial residual = 0.048768, Final residual = 5.65036e-08, No Iterations 1
Yi.dim -> [0 0 0 0 0 0 0]
[1 -3 -1 0 0 0 0]
[0 3 -1 0 0 0 0]
[1 0 -1 0 0 0 0]

[1 -3 -1 0 0 0 0]
DILUPBiCGStab:  Solving for H2O, Initial residual = 4.43608e-104, Final residual = 4.43608e-104, No Iterations 0
Yi.dim -> [0 0 0 0 0 0 0]
[1 -3 -1 0 0 0 0]
[0 3 -1 0 0 0 0]
[1 0 -1 0 0 0 0]

[1 -3 -1 0 0 0 0]
DILUPBiCGStab:  Solving for CH4, Initial residual = 0.0500055, Final residual = 3.54692e-08, No Iterations 1
Yi.dim -> [0 0 0 0 0 0 0]
[1 -3 -1 0 0 0 0]
[0 3 -1 0 0 0 0]
[1 0 -1 0 0 0 0]

[1 -3 -1 0 0 0 0]
DILUPBiCGStab:  Solving for CO2, Initial residual = 5.4185e-104, Final residual = 5.4185e-104, No Iterations 0
DILUPBiCGStab:  Solving for h, Initial residual = 0.077494, Final residual = 7.32842e-07, No Iterations 1
min/max(T) = 293, 2000.63
DICPCG:  Solving for p, Initial residual = 0.0149099, Final residual = 0.00133214, No Iterations 11
diagonal:  Solving for rho, Initial residual = 0, Final residual = 0, No Iterations 0
time step continuity errors : sum local = 8.12534e-05, global = 1.49828e-05, cumulative = -0.00069455
DICPCG:  Solving for p, Initial residual = 0.00231421, Final residual = 7.70056e-07, No Iterations 33
diagonal:  Solving for rho, Initial residual = 0, Final residual = 0, No Iterations 0
time step continuity errors : sum local = 5.11452e-08, global = -2.15399e-09, cumulative = -0.000694553
ExecutionTime = 0.13 s  ClockTime = 0 s

Courant Number mean: 0.0242908 max: 0.0958196
deltaT = 8.91005e-06
Time = 4.74757e-05

diagonal:  Solving for rho, Initial residual = 0, Final residual = 0, No Iterations 0
PIMPLE: iteration 1
Yi.dim -> [0 0 0 0 0 0 0]
[1 -3 -1 0 0 0 0]
[0 3 -1 0 0 0 0]
[1 0 -1 0 0 0 0]

[1 -3 -1 0 0 0 0]
DILUPBiCGStab:  Solving for O2, Initial residual = 0.0464825, Final residual = 6.77122e-08, No Iterations 1
Yi.dim -> [0 0 0 0 0 0 0]
[1 -3 -1 0 0 0 0]
[0 3 -1 0 0 0 0]
[1 0 -1 0 0 0 0]

[1 -3 -1 0 0 0 0]
DILUPBiCGStab:  Solving for H2O, Initial residual = 5.53862e-96, Final residual = 5.53862e-96, No Iterations 0
Yi.dim -> [0 0 0 0 0 0 0]
[1 -3 -1 0 0 0 0]
[0 3 -1 0 0 0 0]
[1 0 -1 0 0 0 0]

[1 -3 -1 0 0 0 0]
DILUPBiCGStab:  Solving for CH4, Initial residual = 0.0482337, Final residual = 4.76732e-08, No Iterations 1
Yi.dim -> [0 0 0 0 0 0 0]
[1 -3 -1 0 0 0 0]
[0 3 -1 0 0 0 0]
[1 0 -1 0 0 0 0]

[1 -3 -1 0 0 0 0]
DILUPBiCGStab:  Solving for CO2, Initial residual = 6.76522e-96, Final residual = 6.76522e-96, No Iterations 0
DILUPBiCGStab:  Solving for h, Initial residual = 0.0628879, Final residual = 7.07963e-07, No Iterations 1
min/max(T) = 293, 2000.5
DICPCG:  Solving for p, Initial residual = 0.0110807, Final residual = 0.000945707, No Iterations 14
diagonal:  Solving for rho, Initial residual = 0, Final residual = 0, No Iterations 0
time step continuity errors : sum local = 7.87522e-05, global = 3.06936e-06, cumulative = -0.000691483
DICPCG:  Solving for p, Initial residual = 0.00400811, Final residual = 9.76431e-07, No Iterations 38
diagonal:  Solving for rho, Initial residual = 0, Final residual = 0, No Iterations 0
time step continuity errors : sum local = 3.80932e-08, global = -2.49767e-09, cumulative = -0.000691486
ExecutionTime = 0.13 s  ClockTime = 0 s

Courant Number mean: 0.0240732 max: 0.0920287
deltaT = 1.06901e-05
Time = 5.81659e-05

diagonal:  Solving for rho, Initial residual = 0, Final residual = 0, No Iterations 0
PIMPLE: iteration 1
Yi.dim -> [0 0 0 0 0 0 0]
[1 -3 -1 0 0 0 0]
[0 3 -1 0 0 0 0]
[1 0 -1 0 0 0 0]

[1 -3 -1 0 0 0 0]
DILUPBiCGStab:  Solving for O2, Initial residual = 0.0446262, Final residual = 1.0057e-07, No Iterations 1
Yi.dim -> [0 0 0 0 0 0 0]
[1 -3 -1 0 0 0 0]
[0 3 -1 0 0 0 0]
[1 0 -1 0 0 0 0]

[1 -3 -1 0 0 0 0]
DILUPBiCGStab:  Solving for H2O, Initial residual = 6.54062e-89, Final residual = 6.54062e-89, No Iterations 0
Yi.dim -> [0 0 0 0 0 0 0]
[1 -3 -1 0 0 0 0]
[0 3 -1 0 0 0 0]
[1 0 -1 0 0 0 0]

[1 -3 -1 0 0 0 0]
DILUPBiCGStab:  Solving for CH4, Initial residual = 0.0467227, Final residual = 7.25903e-08, No Iterations 1
Yi.dim -> [0 0 0 0 0 0 0]
[1 -3 -1 0 0 0 0]
[0 3 -1 0 0 0 0]
[1 0 -1 0 0 0 0]

[1 -3 -1 0 0 0 0]
DILUPBiCGStab:  Solving for CO2, Initial residual = 7.98912e-89, Final residual = 7.98912e-89, No Iterations 0
DILUPBiCGStab:  Solving for h, Initial residual = 0.0524435, Final residual = 7.91924e-07, No Iterations 1
min/max(T) = 293, 2000.27
DICPCG:  Solving for p, Initial residual = 0.0278257, Final residual = 0.0021596, No Iterations 14
diagonal:  Solving for rho, Initial residual = 0, Final residual = 0, No Iterations 0
time step continuity errors : sum local = 0.000100279, global = -5.23997e-07, cumulative = -0.00069201
DICPCG:  Solving for p, Initial residual = 0.0101487, Final residual = 7.72887e-07, No Iterations 42
diagonal:  Solving for rho, Initial residual = 0, Final residual = 0, No Iterations 0
time step continuity errors : sum local = 1.16445e-08, global = 5.43686e-11, cumulative = -0.00069201
ExecutionTime = 0.14 s  ClockTime = 0 s

Courant Number mean: 0.0280542 max: 0.0916581
deltaT = 1.28282e-05
Time = 7.09941e-05

diagonal:  Solving for rho, Initial residual = 0, Final residual = 0, No Iterations 0
PIMPLE: iteration 1
Yi.dim -> [0 0 0 0 0 0 0]
[1 -3 -1 0 0 0 0]
[0 3 -1 0 0 0 0]
[1 0 -1 0 0 0 0]

[1 -3 -1 0 0 0 0]
DILUPBiCGStab:  Solving for O2, Initial residual = 0.0429209, Final residual = 1.66418e-07, No Iterations 1
Yi.dim -> [0 0 0 0 0 0 0]
[1 -3 -1 0 0 0 0]
[0 3 -1 0 0 0 0]
[1 0 -1 0 0 0 0]

[1 -3 -1 0 0 0 0]
DILUPBiCGStab:  Solving for H2O, Initial residual = 6.53942e-83, Final residual = 6.53942e-83, No Iterations 0
Yi.dim -> [0 0 0 0 0 0 0]
[1 -3 -1 0 0 0 0]
[0 3 -1 0 0 0 0]
[1 0 -1 0 0 0 0]

[1 -3 -1 0 0 0 0]
DILUPBiCGStab:  Solving for CH4, Initial residual = 0.0453328, Final residual = 1.23809e-07, No Iterations 1
Yi.dim -> [0 0 0 0 0 0 0]
[1 -3 -1 0 0 0 0]
[0 3 -1 0 0 0 0]
[1 0 -1 0 0 0 0]

[1 -3 -1 0 0 0 0]
DILUPBiCGStab:  Solving for CO2, Initial residual = 7.98765e-83, Final residual = 7.98765e-83, No Iterations 0
DILUPBiCGStab:  Solving for h, Initial residual = 0.046187, Final residual = 7.07045e-09, No Iterations 2
min/max(T) = 293, 1999.99
DICPCG:  Solving for p, Initial residual = 0.0585895, Final residual = 0.00470166, No Iterations 13
diagonal:  Solving for rho, Initial residual = 0, Final residual = 0, No Iterations 0
time step continuity errors : sum local = 8.95673e-05, global = -2.23924e-05, cumulative = -0.000714402
DICPCG:  Solving for p, Initial residual = 0.00551739, Final residual = 6.7664e-07, No Iterations 40
diagonal:  Solving for rho, Initial residual = 0, Final residual = 0, No Iterations 0
time step continuity errors : sum local = 1.97616e-08, global = 3.9112e-10, cumulative = -0.000714402
ExecutionTime = 0.15 s  ClockTime = 0 s

Courant Number mean: 0.0342935 max: 0.098056
deltaT = 1.53938e-05
Time = 8.63879e-05

diagonal:  Solving for rho, Initial residual = 0, Final residual = 0, No Iterations 0
PIMPLE: iteration 1
Yi.dim -> [0 0 0 0 0 0 0]
[1 -3 -1 0 0 0 0]
[0 3 -1 0 0 0 0]
[1 0 -1 0 0 0 0]

[1 -3 -1 0 0 0 0]
DILUPBiCGStab:  Solving for O2, Initial residual = 0.0412554, Final residual = 2.93188e-07, No Iterations 1
Yi.dim -> [0 0 0 0 0 0 0]
[1 -3 -1 0 0 0 0]
[0 3 -1 0 0 0 0]
[1 0 -1 0 0 0 0]

[1 -3 -1 0 0 0 0]
DILUPBiCGStab:  Solving for H2O, Initial residual = 9.45295e-77, Final residual = 9.45295e-77, No Iterations 0
Yi.dim -> [0 0 0 0 0 0 0]
[1 -3 -1 0 0 0 0]
[0 3 -1 0 0 0 0]
[1 0 -1 0 0 0 0]

[1 -3 -1 0 0 0 0]
DILUPBiCGStab:  Solving for CH4, Initial residual = 0.0440217, Final residual = 2.12444e-07, No Iterations 1
Yi.dim -> [0 0 0 0 0 0 0]
[1 -3 -1 0 0 0 0]
[0 3 -1 0 0 0 0]
[1 0 -1 0 0 0 0]

[1 -3 -1 0 0 0 0]
DILUPBiCGStab:  Solving for CO2, Initial residual = 1.15464e-76, Final residual = 1.15464e-76, No Iterations 0
DILUPBiCGStab:  Solving for h, Initial residual = 0.0430286, Final residual = 1.53638e-08, No Iterations 2
min/max(T) = 293, 1999.97
DICPCG:  Solving for p, Initial residual = 0.0238813, Final residual = 0.00208972, No Iterations 12
diagonal:  Solving for rho, Initial residual = 0, Final residual = 0, No Iterations 0
time step continuity errors : sum local = 7.47293e-05, global = 4.0804e-06, cumulative = -0.000710321
DICPCG:  Solving for p, Initial residual = 0.087324, Final residual = 9.53848e-07, No Iterations 52
diagonal:  Solving for rho, Initial residual = 0, Final residual = 0, No Iterations 0
time step continuity errors : sum local = 1.7897e-09, global = 4.3911e-11, cumulative = -0.000710321
ExecutionTime = 0.16 s  ClockTime = 0 s

Courant Number mean: 0.0386454 max: 0.107621
deltaT = 1.84611e-05
Time = 0.000104849

diagonal:  Solving for rho, Initial residual = 0, Final residual = 0, No Iterations 0
PIMPLE: iteration 1
Yi.dim -> [0 0 0 0 0 0 0]
[1 -3 -1 0 0 0 0]
[0 3 -1 0 0 0 0]
[1 0 -1 0 0 0 0]

[1 -3 -1 0 0 0 0]
DILUPBiCGStab:  Solving for O2, Initial residual = 0.0397442, Final residual = 4.7795e-07, No Iterations 1
Yi.dim -> [0 0 0 0 0 0 0]
[1 -3 -1 0 0 0 0]
[0 3 -1 0 0 0 0]
[1 0 -1 0 0 0 0]

[1 -3 -1 0 0 0 0]
DILUPBiCGStab:  Solving for H2O, Initial residual = 1.79575e-70, Final residual = 1.79575e-70, No Iterations 0
Yi.dim -> [0 0 0 0 0 0 0]
[1 -3 -1 0 0 0 0]
[0 3 -1 0 0 0 0]
[1 0 -1 0 0 0 0]

[1 -3 -1 0 0 0 0]
DILUPBiCGStab:  Solving for CH4, Initial residual = 0.042817, Final residual = 3.51088e-07, No Iterations 1
Yi.dim -> [0 0 0 0 0 0 0]
[1 -3 -1 0 0 0 0]
[0 3 -1 0 0 0 0]
[1 0 -1 0 0 0 0]

[1 -3 -1 0 0 0 0]
DILUPBiCGStab:  Solving for CO2, Initial residual = 2.19344e-70, Final residual = 2.19344e-70, No Iterations 0
DILUPBiCGStab:  Solving for h, Initial residual = 0.0410653, Final residual = 2.87817e-08, No Iterations 2
min/max(T) = 293, 2000.02
DICPCG:  Solving for p, Initial residual = 0.242129, Final residual = 0.0200011, No Iterations 17
diagonal:  Solving for rho, Initial residual = 0, Final residual = 0, No Iterations 0
time step continuity errors : sum local = 4.42958e-05, global = 3.73806e-06, cumulative = -0.000706583
DICPCG:  Solving for p, Initial residual = 0.00831219, Final residual = 8.99111e-07, No Iterations 44
diagonal:  Solving for rho, Initial residual = 0, Final residual = 0, No Iterations 0
time step continuity errors : sum local = 2.0981e-08, global = -8.00967e-10, cumulative = -0.000706584
ExecutionTime = 0.19 s  ClockTime = 0 s

Courant Number mean: 0.0412411 max: 0.114308
deltaT = 2.21368e-05
Time = 0.000126986

diagonal:  Solving for rho, Initial residual = 0, Final residual = 0, No Iterations 0
PIMPLE: iteration 1
Yi.dim -> [0 0 0 0 0 0 0]
[1 -3 -1 0 0 0 0]
[0 3 -1 0 0 0 0]
[1 0 -1 0 0 0 0]

[1 -3 -1 0 0 0 0]
DILUPBiCGStab:  Solving for O2, Initial residual = 0.0384047, Final residual = 7.52466e-07, No Iterations 1
Yi.dim -> [0 0 0 0 0 0 0]
[1 -3 -1 0 0 0 0]
[0 3 -1 0 0 0 0]
[1 0 -1 0 0 0 0]

[1 -3 -1 0 0 0 0]
DILUPBiCGStab:  Solving for H2O, Initial residual = 1.72284e-64, Final residual = 1.72284e-64, No Iterations 0
Yi.dim -> [0 0 0 0 0 0 0]
[1 -3 -1 0 0 0 0]
[0 3 -1 0 0 0 0]
[1 0 -1 0 0 0 0]

[1 -3 -1 0 0 0 0]
DILUPBiCGStab:  Solving for CH4, Initial residual = 0.0417324, Final residual = 5.21211e-07, No Iterations 1
Yi.dim -> [0 0 0 0 0 0 0]
[1 -3 -1 0 0 0 0]
[0 3 -1 0 0 0 0]
[1 0 -1 0 0 0 0]

[1 -3 -1 0 0 0 0]
DILUPBiCGStab:  Solving for CO2, Initial residual = 2.10438e-64, Final residual = 2.10438e-64, No Iterations 0
DILUPBiCGStab:  Solving for h, Initial residual = 0.0385499, Final residual = 4.76432e-08, No Iterations 2
min/max(T) = 293, 2000.04
DICPCG:  Solving for p, Initial residual = 0.0312996, Final residual = 0.00218061, No Iterations 14
diagonal:  Solving for rho, Initial residual = 0, Final residual = 0, No Iterations 0
time step continuity errors : sum local = 5.18595e-05, global = -5.78766e-06, cumulative = -0.000712372
DICPCG:  Solving for p, Initial residual = 0.0128593, Final residual = 9.32556e-07, No Iterations 46
diagonal:  Solving for rho, Initial residual = 0, Final residual = 0, No Iterations 0
time step continuity errors : sum local = 1.5535e-08, global = -2.67715e-10, cumulative = -0.000712372
ExecutionTime = 0.2 s  ClockTime = 0 s

Courant Number mean: 0.044683 max: 0.120437
deltaT = 2.65404e-05
Time = 0.000153526

diagonal:  Solving for rho, Initial residual = 0, Final residual = 0, No Iterations 0
PIMPLE: iteration 1
Yi.dim -> [0 0 0 0 0 0 0]
[1 -3 -1 0 0 0 0]
[0 3 -1 0 0 0 0]
[1 0 -1 0 0 0 0]

[1 -3 -1 0 0 0 0]
DILUPBiCGStab:  Solving for O2, Initial residual = 0.0371803, Final residual = 6.56378e-09, No Iterations 2
Yi.dim -> [0 0 0 0 0 0 0]
[1 -3 -1 0 0 0 0]
[0 3 -1 0 0 0 0]
[1 0 -1 0 0 0 0]

[1 -3 -1 0 0 0 0]
DILUPBiCGStab:  Solving for H2O, Initial residual = 7.56987e-59, Final residual = 7.56987e-59, No Iterations 0
Yi.dim -> [0 0 0 0 0 0 0]
[1 -3 -1 0 0 0 0]
[0 3 -1 0 0 0 0]
[1 0 -1 0 0 0 0]

[1 -3 -1 0 0 0 0]
DILUPBiCGStab:  Solving for CH4, Initial residual = 0.0406581, Final residual = 8.23156e-07, No Iterations 1
Yi.dim -> [0 0 0 0 0 0 0]
[1 -3 -1 0 0 0 0]
[0 3 -1 0 0 0 0]
[1 0 -1 0 0 0 0]

[1 -3 -1 0 0 0 0]
DILUPBiCGStab:  Solving for CO2, Initial residual = 9.2463e-59, Final residual = 9.2463e-59, No Iterations 0
DILUPBiCGStab:  Solving for h, Initial residual = 0.0362878, Final residual = 8.15138e-08, No Iterations 2
min/max(T) = 293, 2000.02
DICPCG:  Solving for p, Initial residual = 0.0370974, Final residual = 0.00218457, No Iterations 17
diagonal:  Solving for rho, Initial residual = 0, Final residual = 0, No Iterations 0
time step continuity errors : sum local = 3.37595e-05, global = -8.04594e-07, cumulative = -0.000713176
DICPCG:  Solving for p, Initial residual = 0.0226414, Final residual = 7.35762e-07, No Iterations 50
diagonal:  Solving for rho, Initial residual = 0, Final residual = 0, No Iterations 0
time step continuity errors : sum local = 7.81455e-09, global = 1.64736e-10, cumulative = -0.000713176
ExecutionTime = 0.21 s  ClockTime = 0 s

Courant Number mean: 0.0489782 max: 0.126769
deltaT = 3.18656e-05
Time = 0.000185392

diagonal:  Solving for rho, Initial residual = 0, Final residual = 0, No Iterations 0
PIMPLE: iteration 1
Yi.dim -> [0 0 0 0 0 0 0]
[1 -3 -1 0 0 0 0]
[0 3 -1 0 0 0 0]
[1 0 -1 0 0 0 0]

[1 -3 -1 0 0 0 0]
DILUPBiCGStab:  Solving for O2, Initial residual = 0.0361318, Final residual = 1.31917e-08, No Iterations 2
Yi.dim -> [0 0 0 0 0 0 0]
[1 -3 -1 0 0 0 0]
[0 3 -1 0 0 0 0]
[1 0 -1 0 0 0 0]

[1 -3 -1 0 0 0 0]
DILUPBiCGStab:  Solving for H2O, Initial residual = 1.88674e-53, Final residual = 1.88674e-53, No Iterations 0
Yi.dim -> [0 0 0 0 0 0 0]
[1 -3 -1 0 0 0 0]
[0 3 -1 0 0 0 0]
[1 0 -1 0 0 0 0]

[1 -3 -1 0 0 0 0]
DILUPBiCGStab:  Solving for CH4, Initial residual = 0.0396605, Final residual = 1.07225e-08, No Iterations 2
Yi.dim -> [0 0 0 0 0 0 0]
[1 -3 -1 0 0 0 0]
[0 3 -1 0 0 0 0]
[1 0 -1 0 0 0 0]

[1 -3 -1 0 0 0 0]
DILUPBiCGStab:  Solving for CO2, Initial residual = 2.30458e-53, Final residual = 2.30458e-53, No Iterations 0
DILUPBiCGStab:  Solving for h, Initial residual = 0.0345321, Final residual = 1.46492e-07, No Iterations 2
min/max(T) = 293, 2000.01
DICPCG:  Solving for p, Initial residual = 0.0609598, Final residual = 0.0045438, No Iterations 17
diagonal:  Solving for rho, Initial residual = 0, Final residual = 0, No Iterations 0
time step continuity errors : sum local = 4.13063e-05, global = 1.2052e-06, cumulative = -0.000711971
DICPCG:  Solving for p, Initial residual = 0.0211883, Final residual = 9.80102e-07, No Iterations 50
diagonal:  Solving for rho, Initial residual = 0, Final residual = 0, No Iterations 0
time step continuity errors : sum local = 1.39042e-08, global = 3.70434e-10, cumulative = -0.000711971
ExecutionTime = 0.22 s  ClockTime = 1 s

Courant Number mean: 0.053227 max: 0.132626
deltaT = 3.81891e-05
Time = 0.000223581

diagonal:  Solving for rho, Initial residual = 0, Final residual = 0, No Iterations 0
PIMPLE: iteration 1
Yi.dim -> [0 0 0 0 0 0 0]
[1 -3 -1 0 0 0 0]
[0 3 -1 0 0 0 0]
[1 0 -1 0 0 0 0]

[1 -3 -1 0 0 0 0]
DILUPBiCGStab:  Solving for O2, Initial residual = 0.035134, Final residual = 2.68283e-08, No Iterations 2
Yi.dim -> [0 0 0 0 0 0 0]
[1 -3 -1 0 0 0 0]
[0 3 -1 0 0 0 0]
[1 0 -1 0 0 0 0]

[1 -3 -1 0 0 0 0]
DILUPBiCGStab:  Solving for H2O, Initial residual = 5.4331e-48, Final residual = 5.4331e-48, No Iterations 0
Yi.dim -> [0 0 0 0 0 0 0]
[1 -3 -1 0 0 0 0]
[0 3 -1 0 0 0 0]
[1 0 -1 0 0 0 0]

[1 -3 -1 0 0 0 0]
DILUPBiCGStab:  Solving for CH4, Initial residual = 0.0386385, Final residual = 2.18874e-08, No Iterations 2
Yi.dim -> [0 0 0 0 0 0 0]
[1 -3 -1 0 0 0 0]
[0 3 -1 0 0 0 0]
[1 0 -1 0 0 0 0]

[1 -3 -1 0 0 0 0]
DILUPBiCGStab:  Solving for CO2, Initial residual = 6.63632e-48, Final residual = 6.63632e-48, No Iterations 0
DILUPBiCGStab:  Solving for h, Initial residual = 0.033001, Final residual = 2.57804e-07, No Iterations 2
min/max(T) = 293, 2000.01
DICPCG:  Solving for p, Initial residual = 0.0592576, Final residual = 0.00473902, No Iterations 17
diagonal:  Solving for rho, Initial residual = 0, Final residual = 0, No Iterations 0
time step continuity errors : sum local = 5.54958e-05, global = 4.22128e-06, cumulative = -0.000707749
DICPCG:  Solving for p, Initial residual = 0.0219812, Final residual = 7.3794e-07, No Iterations 51
diagonal:  Solving for rho, Initial residual = 0, Final residual = 0, No Iterations 0
time step continuity errors : sum local = 1.28541e-08, global = -4.26804e-10, cumulative = -0.00070775
ExecutionTime = 0.23 s  ClockTime = 1 s

Courant Number mean: 0.057337 max: 0.138047
deltaT = 4.58987e-05
Time = 0.00026948

diagonal:  Solving for rho, Initial residual = 0, Final residual = 0, No Iterations 0
PIMPLE: iteration 1
Yi.dim -> [0 0 0 0 0 0 0]
[1 -3 -1 0 0 0 0]
[0 3 -1 0 0 0 0]
[1 0 -1 0 0 0 0]

[1 -3 -1 0 0 0 0]
DILUPBiCGStab:  Solving for O2, Initial residual = 0.0342463, Final residual = 5.59135e-08, No Iterations 2
Yi.dim -> [0 0 0 0 0 0 0]
[1 -3 -1 0 0 0 0]
[0 3 -1 0 0 0 0]
[1 0 -1 0 0 0 0]

[1 -3 -1 0 0 0 0]
DILUPBiCGStab:  Solving for H2O, Initial residual = 4.53657e-43, Final residual = 4.53657e-43, No Iterations 0
Yi.dim -> [0 0 0 0 0 0 0]
[1 -3 -1 0 0 0 0]
[0 3 -1 0 0 0 0]
[1 0 -1 0 0 0 0]

[1 -3 -1 0 0 0 0]
DILUPBiCGStab:  Solving for CH4, Initial residual = 0.0377689, Final residual = 4.35982e-08, No Iterations 2
Yi.dim -> [0 0 0 0 0 0 0]
[1 -3 -1 0 0 0 0]
[0 3 -1 0 0 0 0]
[1 0 -1 0 0 0 0]

[1 -3 -1 0 0 0 0]
DILUPBiCGStab:  Solving for CO2, Initial residual = 5.54124e-43, Final residual = 5.54124e-43, No Iterations 0
DILUPBiCGStab:  Solving for h, Initial residual = 0.0317676, Final residual = 4.53364e-07, No Iterations 2
min/max(T) = 293, 2000.01
DICPCG:  Solving for p, Initial residual = 0.0599884, Final residual = 0.0051217, No Iterations 17
diagonal:  Solving for rho, Initial residual = 0, Final residual = 0, No Iterations 0
time step continuity errors : sum local = 7.0365e-05, global = 5.78686e-06, cumulative = -0.000701963
DICPCG:  Solving for p, Initial residual = 0.0246264, Final residual = 8.45044e-07, No Iterations 50
diagonal:  Solving for rho, Initial residual = 0, Final residual = 0, No Iterations 0
time step continuity errors : sum local = 1.66645e-08, global = 8.83456e-10, cumulative = -0.000701962
ExecutionTime = 0.24 s  ClockTime = 1 s

Courant Number mean: 0.0615743 max: 0.144339
deltaT = 5.49747e-05
Time = 0.000324454

diagonal:  Solving for rho, Initial residual = 0, Final residual = 0, No Iterations 0
PIMPLE: iteration 1
Yi.dim -> [0 0 0 0 0 0 0]
[1 -3 -1 0 0 0 0]
[0 3 -1 0 0 0 0]
[1 0 -1 0 0 0 0]

[1 -3 -1 0 0 0 0]
DILUPBiCGStab:  Solving for O2, Initial residual = 0.0333103, Final residual = 1.11113e-07, No Iterations 2
Yi.dim -> [0 0 0 0 0 0 0]
[1 -3 -1 0 0 0 0]
[0 3 -1 0 0 0 0]
[1 0 -1 0 0 0 0]

[1 -3 -1 0 0 0 0]
DILUPBiCGStab:  Solving for H2O, Initial residual = 2.28359e-38, Final residual = 2.28359e-38, No Iterations 0
Yi.dim -> [0 0 0 0 0 0 0]
[1 -3 -1 0 0 0 0]
[0 3 -1 0 0 0 0]
[1 0 -1 0 0 0 0]

[1 -3 -1 0 0 0 0]
DILUPBiCGStab:  Solving for CH4, Initial residual = 0.036844, Final residual = 8.58383e-08, No Iterations 2
Yi.dim -> [0 0 0 0 0 0 0]
[1 -3 -1 0 0 0 0]
[0 3 -1 0 0 0 0]
[1 0 -1 0 0 0 0]

[1 -3 -1 0 0 0 0]
DILUPBiCGStab:  Solving for CO2, Initial residual = 2.78931e-38, Final residual = 2.78931e-38, No Iterations 0
DILUPBiCGStab:  Solving for h, Initial residual = 0.0305825, Final residual = 7.68001e-07, No Iterations 2
min/max(T) = 293, 2000
DICPCG:  Solving for p, Initial residual = 0.0678476, Final residual = 0.00591478, No Iterations 17
diagonal:  Solving for rho, Initial residual = 0, Final residual = 0, No Iterations 0
time step continuity errors : sum local = 8.60306e-05, global = 7.76389e-06, cumulative = -0.000694198
DICPCG:  Solving for p, Initial residual = 0.026316, Final residual = 8.632e-07, No Iterations 50
diagonal:  Solving for rho, Initial residual = 0, Final residual = 0, No Iterations 0
time step continuity errors : sum local = 1.94661e-08, global = 1.15492e-09, cumulative = -0.000694197
ExecutionTime = 0.25 s  ClockTime = 1 s

Courant Number mean: 0.0655711 max: 0.150794
deltaT = 6.582e-05
Time = 0.000390274

diagonal:  Solving for rho, Initial residual = 0, Final residual = 0, No Iterations 0
PIMPLE: iteration 1
Yi.dim -> [0 0 0 0 0 0 0]
[1 -3 -1 0 0 0 0]
[0 3 -1 0 0 0 0]
[1 0 -1 0 0 0 0]

[1 -3 -1 0 0 0 0]
DILUPBiCGStab:  Solving for O2, Initial residual = 0.0324295, Final residual = 2.19354e-07, No Iterations 2
Yi.dim -> [0 0 0 0 0 0 0]
[1 -3 -1 0 0 0 0]
[0 3 -1 0 0 0 0]
[1 0 -1 0 0 0 0]

[1 -3 -1 0 0 0 0]
DILUPBiCGStab:  Solving for H2O, Initial residual = 5.40447e-34, Final residual = 5.40447e-34, No Iterations 0
Yi.dim -> [0 0 0 0 0 0 0]
[1 -3 -1 0 0 0 0]
[0 3 -1 0 0 0 0]
[1 0 -1 0 0 0 0]

[1 -3 -1 0 0 0 0]
DILUPBiCGStab:  Solving for CH4, Initial residual = 0.035943, Final residual = 1.69785e-07, No Iterations 2
Yi.dim -> [0 0 0 0 0 0 0]
[1 -3 -1 0 0 0 0]
[0 3 -1 0 0 0 0]
[1 0 -1 0 0 0 0]

[1 -3 -1 0 0 0 0]
DILUPBiCGStab:  Solving for CO2, Initial residual = 6.60135e-34, Final residual = 6.60135e-34, No Iterations 0
DILUPBiCGStab:  Solving for h, Initial residual = 0.0295173, Final residual = 7.03952e-08, No Iterations 2
min/max(T) = 293, 2000
DICPCG:  Solving for p, Initial residual = 0.0683379, Final residual = 0.00525179, No Iterations 18
diagonal:  Solving for rho, Initial residual = 0, Final residual = 0, No Iterations 0
time step continuity errors : sum local = 8.25292e-05, global = 7.69305e-06, cumulative = -0.000686504
DICPCG:  Solving for p, Initial residual = 0.0264083, Final residual = 8.63489e-07, No Iterations 50
diagonal:  Solving for rho, Initial residual = 0, Final residual = 0, No Iterations 0
time step continuity errors : sum local = 2.31052e-08, global = 1.28053e-09, cumulative = -0.000686503
ExecutionTime = 0.26 s  ClockTime = 1 s

Courant Number mean: 0.0691643 max: 0.156326
deltaT = 7.87682e-05
Time = 0.000469043

diagonal:  Solving for rho, Initial residual = 0, Final residual = 0, No Iterations 0
PIMPLE: iteration 1
Yi.dim -> [0 0 0 0 0 0 0]
[1 -3 -1 0 0 0 0]
[0 3 -1 0 0 0 0]
[1 0 -1 0 0 0 0]

[1 -3 -1 0 0 0 0]
DILUPBiCGStab:  Solving for O2, Initial residual = 0.0316308, Final residual = 4.33949e-07, No Iterations 2
Yi.dim -> [0 0 0 0 0 0 0]
[1 -3 -1 0 0 0 0]
[0 3 -1 0 0 0 0]
[1 0 -1 0 0 0 0]

[1 -3 -1 0 0 0 0]
DILUPBiCGStab:  Solving for H2O, Initial residual = 6.71791e-30, Final residual = 6.71791e-30, No Iterations 0
Yi.dim -> [0 0 0 0 0 0 0]
[1 -3 -1 0 0 0 0]
[0 3 -1 0 0 0 0]
[1 0 -1 0 0 0 0]

[1 -3 -1 0 0 0 0]
DILUPBiCGStab:  Solving for CH4, Initial residual = 0.0350709, Final residual = 3.37081e-07, No Iterations 2
Yi.dim -> [0 0 0 0 0 0 0]
[1 -3 -1 0 0 0 0]
[0 3 -1 0 0 0 0]
[1 0 -1 0 0 0 0]

[1 -3 -1 0 0 0 0]
DILUPBiCGStab:  Solving for CO2, Initial residual = 8.20567e-30, Final residual = 8.20567e-30, No Iterations 0
DILUPBiCGStab:  Solving for h, Initial residual = 0.0285672, Final residual = 1.45843e-07, No Iterations 2
min/max(T) = 293, 2000
DICPCG:  Solving for p, Initial residual = 0.0702176, Final residual = 0.00557623, No Iterations 18
diagonal:  Solving for rho, Initial residual = 0, Final residual = 0, No Iterations 0
time step continuity errors : sum local = 9.69843e-05, global = 1.02953e-05, cumulative = -0.000676207
DICPCG:  Solving for p, Initial residual = 0.0265909, Final residual = 8.8115e-07, No Iterations 50
diagonal:  Solving for rho, Initial residual = 0, Final residual = 0, No Iterations 0
time step continuity errors : sum local = 2.74797e-08, global = 1.46245e-09, cumulative = -0.000676206
ExecutionTime = 0.27 s  ClockTime = 1 s

Courant Number mean: 0.0724222 max: 0.159867
deltaT = 9.43659e-05
Time = 0.000563408

diagonal:  Solving for rho, Initial residual = 0, Final residual = 0, No Iterations 0
PIMPLE: iteration 1
Yi.dim -> [0 0 0 0 0 0 0]
[1 -3 -1 0 0 0 0]
[0 3 -1 0 0 0 0]
[1 0 -1 0 0 0 0]

[1 -3 -1 0 0 0 0]
DILUPBiCGStab:  Solving for O2, Initial residual = 0.0309451, Final residual = 8.28895e-07, No Iterations 2
Yi.dim -> [0 0 0 0 0 0 0]
[1 -3 -1 0 0 0 0]
[0 3 -1 0 0 0 0]
[1 0 -1 0 0 0 0]

[1 -3 -1 0 0 0 0]
DILUPBiCGStab:  Solving for H2O, Initial residual = 4.65855e-26, Final residual = 4.65855e-26, No Iterations 0
Yi.dim -> [0 0 0 0 0 0 0]
[1 -3 -1 0 0 0 0]
[0 3 -1 0 0 0 0]
[1 0 -1 0 0 0 0]

[1 -3 -1 0 0 0 0]
DILUPBiCGStab:  Solving for CH4, Initial residual = 0.0342872, Final residual = 6.41635e-07, No Iterations 2
Yi.dim -> [0 0 0 0 0 0 0]
[1 -3 -1 0 0 0 0]
[0 3 -1 0 0 0 0]
[1 0 -1 0 0 0 0]

[1 -3 -1 0 0 0 0]
DILUPBiCGStab:  Solving for CO2, Initial residual = 5.69024e-26, Final residual = 5.69024e-26, No Iterations 0
DILUPBiCGStab:  Solving for h, Initial residual = 0.027753, Final residual = 3.01922e-07, No Iterations 2
min/max(T) = 293, 2000
DICPCG:  Solving for p, Initial residual = 0.072639, Final residual = 0.00609577, No Iterations 18
diagonal:  Solving for rho, Initial residual = 0, Final residual = 0, No Iterations 0
time step continuity errors : sum local = 0.000117724, global = 1.31112e-05, cumulative = -0.000663095
DICPCG:  Solving for p, Initial residual = 0.0268443, Final residual = 9.15716e-07, No Iterations 50
diagonal:  Solving for rho, Initial residual = 0, Final residual = 0, No Iterations 0
time step continuity errors : sum local = 3.32784e-08, global = 1.64025e-09, cumulative = -0.000663093
ExecutionTime = 0.28 s  ClockTime = 1 s

Courant Number mean: 0.075425 max: 0.162806
deltaT = 0.000113694
Time = 0.000677102

diagonal:  Solving for rho, Initial residual = 0, Final residual = 0, No Iterations 0
PIMPLE: iteration 1
Yi.dim -> [0 0 0 0 0 0 0]
[1 -3 -1 0 0 0 0]
[0 3 -1 0 0 0 0]
[1 0 -1 0 0 0 0]

[1 -3 -1 0 0 0 0]
DILUPBiCGStab:  Solving for O2, Initial residual = 0.0304685, Final residual = 8.99974e-08, No Iterations 2
Yi.dim -> [0 0 0 0 0 0 0]
[1 -3 -1 0 0 0 0]
[0 3 -1 0 0 0 0]
[1 0 -1 0 0 0 0]

[1 -3 -1 0 0 0 0]
DILUPBiCGStab:  Solving for H2O, Initial residual = 1.86799e-22, Final residual = 1.86799e-22, No Iterations 0
Yi.dim -> [0 0 0 0 0 0 0]
[1 -3 -1 0 0 0 0]
[0 3 -1 0 0 0 0]
[1 0 -1 0 0 0 0]

[1 -3 -1 0 0 0 0]
DILUPBiCGStab:  Solving for CH4, Initial residual = 0.0337266, Final residual = 6.71049e-08, No Iterations 2
Yi.dim -> [0 0 0 0 0 0 0]
[1 -3 -1 0 0 0 0]
[0 3 -1 0 0 0 0]
[1 0 -1 0 0 0 0]

[1 -3 -1 0 0 0 0]
DILUPBiCGStab:  Solving for CO2, Initial residual = 2.28168e-22, Final residual = 2.28168e-22, No Iterations 0
DILUPBiCGStab:  Solving for h, Initial residual = 0.0271891, Final residual = 6.33269e-07, No Iterations 2
min/max(T) = 293, 2000
DICPCG:  Solving for p, Initial residual = 0.0745005, Final residual = 0.00686583, No Iterations 18
diagonal:  Solving for rho, Initial residual = 0, Final residual = 0, No Iterations 0
time step continuity errors : sum local = 0.000148136, global = 1.71925e-05, cumulative = -0.000645901
DICPCG:  Solving for p, Initial residual = 0.0265904, Final residual = 8.93873e-07, No Iterations 50
diagonal:  Solving for rho, Initial residual = 0, Final residual = 0, No Iterations 0
time step continuity errors : sum local = 3.86038e-08, global = 1.69976e-09, cumulative = -0.000645899
ExecutionTime = 0.29 s  ClockTime = 1 s

Courant Number mean: 0.078291 max: 0.166565
deltaT = 0.000137101
Time = 0.000814204

diagonal:  Solving for rho, Initial residual = 0, Final residual = 0, No Iterations 0
PIMPLE: iteration 1
Yi.dim -> [0 0 0 0 0 0 0]
[1 -3 -1 0 0 0 0]
[0 3 -1 0 0 0 0]
[1 0 -1 0 0 0 0]

[1 -3 -1 0 0 0 0]
DILUPBiCGStab:  Solving for O2, Initial residual = 0.0300917, Final residual = 2.10747e-07, No Iterations 2
Yi.dim -> [0 0 0 0 0 0 0]
[1 -3 -1 0 0 0 0]
[0 3 -1 0 0 0 0]
[1 0 -1 0 0 0 0]

[1 -3 -1 0 0 0 0]
DILUPBiCGStab:  Solving for H2O, Initial residual = 9.69555e-19, Final residual = 9.69555e-19, No Iterations 0
Yi.dim -> [0 0 0 0 0 0 0]
[1 -3 -1 0 0 0 0]
[0 3 -1 0 0 0 0]
[1 0 -1 0 0 0 0]

[1 -3 -1 0 0 0 0]
DILUPBiCGStab:  Solving for CH4, Initial residual = 0.0332035, Final residual = 1.60182e-07, No Iterations 2
Yi.dim -> [0 0 0 0 0 0 0]
[1 -3 -1 0 0 0 0]
[0 3 -1 0 0 0 0]
[1 0 -1 0 0 0 0]

[1 -3 -1 0 0 0 0]
DILUPBiCGStab:  Solving for CO2, Initial residual = 1.18427e-18, Final residual = 1.18427e-18, No Iterations 0
DILUPBiCGStab:  Solving for h, Initial residual = 0.0267117, Final residual = 1.10357e-07, No Iterations 3
min/max(T) = 293, 2000
DICPCG:  Solving for p, Initial residual = 0.0752586, Final residual = 0.00581337, No Iterations 19
diagonal:  Solving for rho, Initial residual = 0, Final residual = 0, No Iterations 0
time step continuity errors : sum local = 0.000142119, global = 1.73268e-05, cumulative = -0.000628572
DICPCG:  Solving for p, Initial residual = 0.0252376, Final residual = 8.98815e-07, No Iterations 51
diagonal:  Solving for rho, Initial residual = 0, Final residual = 0, No Iterations 0
time step continuity errors : sum local = 4.63911e-08, global = -6.91478e-10, cumulative = -0.000628573
ExecutionTime = 0.3 s  ClockTime = 1 s

Courant Number mean: 0.0807313 max: 0.181598
deltaT = 0.000164032
Time = 0.000978236

diagonal:  Solving for rho, Initial residual = 0, Final residual = 0, No Iterations 0
PIMPLE: iteration 1
Yi.dim -> [0 0 0 0 0 0 0]
[1 -3 -1 0 0 0 0]
[0 3 -1 0 0 0 0]
[1 0 -1 0 0 0 0]

[1 -3 -1 0 0 0 0]
DILUPBiCGStab:  Solving for O2, Initial residual = 0.0295452, Final residual = 4.64729e-07, No Iterations 2
Yi.dim -> [0 0 0 0 0 0 0]
[1 -3 -1 0 0 0 0]
[0 3 -1 0 0 0 0]
[1 0 -1 0 0 0 0]

[1 -3 -1 0 0 0 0]
DILUPBiCGStab:  Solving for H2O, Initial residual = 1.79054e-15, Final residual = 1.79054e-15, No Iterations 0
Yi.dim -> [0 0 0 0 0 0 0]
[1 -3 -1 0 0 0 0]
[0 3 -1 0 0 0 0]
[1 0 -1 0 0 0 0]

[1 -3 -1 0 0 0 0]
DILUPBiCGStab:  Solving for CH4, Initial residual = 0.032499, Final residual = 3.43008e-07, No Iterations 2
Yi.dim -> [0 0 0 0 0 0 0]
[1 -3 -1 0 0 0 0]
[0 3 -1 0 0 0 0]
[1 0 -1 0 0 0 0]

[1 -3 -1 0 0 0 0]
DILUPBiCGStab:  Solving for CO2, Initial residual = 2.18708e-15, Final residual = 2.18708e-15, No Iterations 0
DILUPBiCGStab:  Solving for h, Initial residual = 0.0260962, Final residual = 2.482e-07, No Iterations 3
min/max(T) = 293, 2000
DICPCG:  Solving for p, Initial residual = 0.0725697, Final residual = 0.0058682, No Iterations 19
diagonal:  Solving for rho, Initial residual = 0, Final residual = 0, No Iterations 0
time step continuity errors : sum local = 0.00015823, global = 2.14508e-05, cumulative = -0.000607122
DICPCG:  Solving for p, Initial residual = 0.0242869, Final residual = 8.47784e-07, No Iterations 51
diagonal:  Solving for rho, Initial residual = 0, Final residual = 0, No Iterations 0
time step continuity errors : sum local = 5.07075e-08, global = -5.54978e-10, cumulative = -0.000607123
ExecutionTime = 0.32 s  ClockTime = 1 s

Courant Number mean: 0.0822136 max: 0.195901
deltaT = 0.000196125
Time = 0.00117436

diagonal:  Solving for rho, Initial residual = 0, Final residual = 0, No Iterations 0
PIMPLE: iteration 1
Yi.dim -> [0 0 0 0 0 0 0]
[1 -3 -1 0 0 0 0]
[0 3 -1 0 0 0 0]
[1 0 -1 0 0 0 0]

[1 -3 -1 0 0 0 0]
DILUPBiCGStab:  Solving for O2, Initial residual = 0.0291173, Final residual = 9.69468e-07, No Iterations 2
Yi.dim -> [0 0 0 0 0 0 0]
[1 -3 -1 0 0 0 0]
[0 3 -1 0 0 0 0]
[1 0 -1 0 0 0 0]

[1 -3 -1 0 0 0 0]
DILUPBiCGStab:  Solving for H2O, Initial residual = 1.66218e-12, Final residual = 1.66218e-12, No Iterations 0
Yi.dim -> [0 0 0 0 0 0 0]
[1 -3 -1 0 0 0 0]
[0 3 -1 0 0 0 0]
[1 0 -1 0 0 0 0]

[1 -3 -1 0 0 0 0]
DILUPBiCGStab:  Solving for CH4, Initial residual = 0.031841, Final residual = 7.39673e-07, No Iterations 2
Yi.dim -> [0 0 0 0 0 0 0]
[1 -3 -1 0 0 0 0]
[0 3 -1 0 0 0 0]
[1 0 -1 0 0 0 0]

[1 -3 -1 0 0 0 0]
DILUPBiCGStab:  Solving for CO2, Initial residual = 2.0303e-12, Final residual = 2.0303e-12, No Iterations 0
DILUPBiCGStab:  Solving for h, Initial residual = 0.0255345, Final residual = 5.57872e-07, No Iterations 3
min/max(T) = 293, 2000
DICPCG:  Solving for p, Initial residual = 0.0721849, Final residual = 0.00578792, No Iterations 19
diagonal:  Solving for rho, Initial residual = 0, Final residual = 0, No Iterations 0
time step continuity errors : sum local = 0.000173465, global = 2.55428e-05, cumulative = -0.00058158
DICPCG:  Solving for p, Initial residual = 0.0232599, Final residual = 9.66383e-07, No Iterations 49
diagonal:  Solving for rho, Initial residual = 0, Final residual = 0, No Iterations 0
time step continuity errors : sum local = 6.63601e-08, global = 3.58259e-09, cumulative = -0.000581576
ExecutionTime = 0.33 s  ClockTime = 1 s

Courant Number mean: 0.0838087 max: 0.21336
deltaT = 0.000232254
Time = 0.00140661

diagonal:  Solving for rho, Initial residual = 0, Final residual = 0, No Iterations 0
PIMPLE: iteration 1
Yi.dim -> [0 0 0 0 0 0 0]
[1 -3 -1 0 0 0 0]
[0 3 -1 0 0 0 0]
[1 0 -1 0 0 0 0]

[1 -3 -1 0 0 0 0]
DILUPBiCGStab:  Solving for O2, Initial residual = 0.0288127, Final residual = 1.57e-07, No Iterations 3
Yi.dim -> [0 0 0 0 0 0 0]
[1 -3 -1 0 0 0 0]
[0 3 -1 0 0 0 0]
[1 0 -1 0 0 0 0]

[1 -3 -1 0 0 0 0]
DILUPBiCGStab:  Solving for H2O, Initial residual = 9.34687e-10, Final residual = 9.34687e-10, No Iterations 0
Yi.dim -> [0 0 0 0 0 0 0]
[1 -3 -1 0 0 0 0]
[0 3 -1 0 0 0 0]
[1 0 -1 0 0 0 0]

[1 -3 -1 0 0 0 0]
DILUPBiCGStab:  Solving for CH4, Initial residual = 0.0313463, Final residual = 1.20379e-07, No Iterations 3
Yi.dim -> [0 0 0 0 0 0 0]
[1 -3 -1 0 0 0 0]
[0 3 -1 0 0 0 0]
[1 0 -1 0 0 0 0]

[1 -3 -1 0 0 0 0]
DILUPBiCGStab:  Solving for CO2, Initial residual = 1.14168e-09, Final residual = 1.14168e-09, No Iterations 0
DILUPBiCGStab:  Solving for h, Initial residual = 0.0248554, Final residual = 2.16223e-07, No Iterations 3
min/max(T) = 293, 2000
DICPCG:  Solving for p, Initial residual = 0.0694994, Final residual = 0.00603148, No Iterations 19
diagonal:  Solving for rho, Initial residual = 0, Final residual = 0, No Iterations 0
time step continuity errors : sum local = 0.000195701, global = 3.06356e-05, cumulative = -0.000550941
DICPCG:  Solving for p, Initial residual = 0.0225587, Final residual = 9.25671e-07, No Iterations 49
diagonal:  Solving for rho, Initial residual = 0, Final residual = 0, No Iterations 0
time step continuity errors : sum local = 7.05729e-08, global = 3.68318e-09, cumulative = -0.000550937
ExecutionTime = 0.34 s  ClockTime = 1 s

Courant Number mean: 0.0855947 max: 0.229129
deltaT = 0.000268543
Time = 0.00167516

diagonal:  Solving for rho, Initial residual = 0, Final residual = 0, No Iterations 0
PIMPLE: iteration 1
Yi.dim -> [0 0 0 0 0 0 0]
[1 -3 -1 0 0 0 0]
[0 3 -1 0 0 0 0]
[1 0 -1 0 0 0 0]

[1 -3 -1 0 0 0 0]
DILUPBiCGStab:  Solving for O2, Initial residual = 0.0277267, Final residual = 3.06881e-07, No Iterations 3
Yi.dim -> [0 0 0 0 0 0 0]
[1 -3 -1 0 0 0 0]
[0 3 -1 0 0 0 0]
[1 0 -1 0 0 0 0]

[1 -3 -1 0 0 0 0]
DILUPBiCGStab:  Solving for H2O, Initial residual = 4.71569e-07, Final residual = 4.71569e-07, No Iterations 0
Yi.dim -> [0 0 0 0 0 0 0]
[1 -3 -1 0 0 0 0]
[0 3 -1 0 0 0 0]
[1 0 -1 0 0 0 0]

[1 -3 -1 0 0 0 0]
DILUPBiCGStab:  Solving for CH4, Initial residual = 0.0299737, Final residual = 2.38847e-07, No Iterations 3
Yi.dim -> [0 0 0 0 0 0 0]
[1 -3 -1 0 0 0 0]
[0 3 -1 0 0 0 0]
[1 0 -1 0 0 0 0]

[1 -3 -1 0 0 0 0]
DILUPBiCGStab:  Solving for CO2, Initial residual = 5.76003e-07, Final residual = 5.76003e-07, No Iterations 0
DILUPBiCGStab:  Solving for h, Initial residual = 0.0238041, Final residual = 4.0218e-07, No Iterations 3
min/max(T) = 293, 2000
DICPCG:  Solving for p, Initial residual = 0.0694504, Final residual = 0.00630268, No Iterations 19
diagonal:  Solving for rho, Initial residual = 0, Final residual = 0, No Iterations 0
time step continuity errors : sum local = 0.000213276, global = 3.47871e-05, cumulative = -0.00051615
DICPCG:  Solving for p, Initial residual = 0.0221469, Final residual = 9.7447e-07, No Iterations 50
diagonal:  Solving for rho, Initial residual = 0, Final residual = 0, No Iterations 0
time step continuity errors : sum local = 7.8921e-08, global = 8.23272e-10, cumulative = -0.000516149
ExecutionTime = 0.35 s  ClockTime = 1 s

Courant Number mean: 0.0877166 max: 0.256443
deltaT = 0.000308327
Time = 0.00198349

diagonal:  Solving for rho, Initial residual = 0, Final residual = 0, No Iterations 0
PIMPLE: iteration 1
Yi.dim -> [0 0 0 0 0 0 0]
[1 -3 -1 0 0 0 0]
[0 3 -1 0 0 0 0]
[1 0 -1 0 0 0 0]

[1 -3 -1 0 0 0 0]
DILUPBiCGStab:  Solving for O2, Initial residual = 0.0268381, Final residual = 5.5843e-07, No Iterations 3
Yi.dim -> [0 0 0 0 0 0 0]
[1 -3 -1 0 0 0 0]
[0 3 -1 0 0 0 0]
[1 0 -1 0 0 0 0]

[1 -3 -1 0 0 0 0]
DILUPBiCGStab:  Solving for H2O, Initial residual = 8.64177e-05, Final residual = 6.51417e-07, No Iterations 1
Yi.dim -> [0 0 0 0 0 0 0]
[1 -3 -1 0 0 0 0]
[0 3 -1 0 0 0 0]
[1 0 -1 0 0 0 0]

[1 -3 -1 0 0 0 0]
DILUPBiCGStab:  Solving for CH4, Initial residual = 0.0286567, Final residual = 4.35918e-07, No Iterations 3
Yi.dim -> [0 0 0 0 0 0 0]
[1 -3 -1 0 0 0 0]
[0 3 -1 0 0 0 0]
[1 0 -1 0 0 0 0]

[1 -3 -1 0 0 0 0]
DILUPBiCGStab:  Solving for CO2, Initial residual = 0.000105554, Final residual = 7.95665e-07, No Iterations 1
DILUPBiCGStab:  Solving for h, Initial residual = 0.022814, Final residual = 7.31646e-07, No Iterations 3
min/max(T) = 293, 2000
DICPCG:  Solving for p, Initial residual = 0.0664237, Final residual = 0.005225, No Iterations 20
diagonal:  Solving for rho, Initial residual = 0, Final residual = 0, No Iterations 0
time step continuity errors : sum local = 0.000182717, global = 2.94228e-05, cumulative = -0.000486726
DICPCG:  Solving for p, Initial residual = 0.0212904, Final residual = 8.87413e-07, No Iterations 50
diagonal:  Solving for rho, Initial residual = 0, Final residual = 0, No Iterations 0
time step continuity errors : sum local = 7.68694e-08, global = -2.13498e-10, cumulative = -0.000486726
ExecutionTime = 0.36 s  ClockTime = 1 s

Courant Number mean: 0.094213 max: 0.296969
deltaT = 0.000348544
Time = 0.00233203

diagonal:  Solving for rho, Initial residual = 0, Final residual = 0, No Iterations 0
PIMPLE: iteration 1
Yi.dim -> [0 0 0 0 0 0 0]
[1 -3 -1 0 0 0 0]
[0 3 -1 0 0 0 0]
[1 0 -1 0 0 0 0]

[1 -3 -1 0 0 0 0]
DILUPBiCGStab:  Solving for O2, Initial residual = 0.0258356, Final residual = 9.27475e-07, No Iterations 3
Yi.dim -> [0 0 0 0 0 0 0]
[1 -3 -1 0 0 0 0]
[0 3 -1 0 0 0 0]
[1 0 -1 0 0 0 0]

[1 -3 -1 0 0 0 0]
DILUPBiCGStab:  Solving for H2O, Initial residual = 0.0089683, Final residual = 2.69735e-07, No Iterations 3
Yi.dim -> [0 0 0 0 0 0 0]
[1 -3 -1 0 0 0 0]
[0 3 -1 0 0 0 0]
[1 0 -1 0 0 0 0]

[1 -3 -1 0 0 0 0]
DILUPBiCGStab:  Solving for CH4, Initial residual = 0.0274758, Final residual = 7.25772e-07, No Iterations 3
Yi.dim -> [0 0 0 0 0 0 0]
[1 -3 -1 0 0 0 0]
[0 3 -1 0 0 0 0]
[1 0 -1 0 0 0 0]

[1 -3 -1 0 0 0 0]
DILUPBiCGStab:  Solving for CO2, Initial residual = 0.010932, Final residual = 3.28795e-07, No Iterations 3
DILUPBiCGStab:  Solving for h, Initial residual = 0.0217637, Final residual = 2.83539e-07, No Iterations 4
min/max(T) = 293, 1999.99
DICPCG:  Solving for p, Initial residual = 0.0604365, Final residual = 0.00557861, No Iterations 20
diagonal:  Solving for rho, Initial residual = 0, Final residual = 0, No Iterations 0
time step continuity errors : sum local = 0.000193547, global = 2.96963e-05, cumulative = -0.00045703
DICPCG:  Solving for p, Initial residual = 0.023118, Final residual = 7.97704e-07, No Iterations 52
diagonal:  Solving for rho, Initial residual = 0, Final residual = 0, No Iterations 0
time step continuity errors : sum local = 6.54767e-08, global = 5.95077e-12, cumulative = -0.00045703
ExecutionTime = 0.37 s  ClockTime = 1 s

Courant Number mean: 0.102001 max: 0.340751
deltaT = 0.000383399
Time = 0.00271543

diagonal:  Solving for rho, Initial residual = 0, Final residual = 0, No Iterations 0
PIMPLE: iteration 1
Yi.dim -> [0 0 0 0 0 0 0]
[1 -3 -1 0 0 0 0]
[0 3 -1 0 0 0 0]
[1 0 -1 0 0 0 0]

[1 -3 -1 0 0 0 0]
DILUPBiCGStab:  Solving for O2, Initial residual = 0.0244256, Final residual = 2.70664e-07, No Iterations 3
Yi.dim -> [0 0 0 0 0 0 0]
[1 -3 -1 0 0 0 0]
[0 3 -1 0 0 0 0]
[1 0 -1 0 0 0 0]

[1 -3 -1 0 0 0 0]
DILUPBiCGStab:  Solving for H2O, Initial residual = 0.357742, Final residual = 5.88892e-07, No Iterations 4
Yi.dim -> [0 0 0 0 0 0 0]
[1 -3 -1 0 0 0 0]
[0 3 -1 0 0 0 0]
[1 0 -1 0 0 0 0]

[1 -3 -1 0 0 0 0]
DILUPBiCGStab:  Solving for CH4, Initial residual = 0.0259465, Final residual = 2.09093e-07, No Iterations 3
Yi.dim -> [0 0 0 0 0 0 0]
[1 -3 -1 0 0 0 0]
[0 3 -1 0 0 0 0]
[1 0 -1 0 0 0 0]

[1 -3 -1 0 0 0 0]
DILUPBiCGStab:  Solving for CO2, Initial residual = 0.403093, Final residual = 6.63546e-07, No Iterations 4
DILUPBiCGStab:  Solving for h, Initial residual = 0.0205972, Final residual = 3.8066e-07, No Iterations 4
min/max(T) = 293, 1999.98
DICPCG:  Solving for p, Initial residual = 0.0711617, Final residual = 0.00611683, No Iterations 20
diagonal:  Solving for rho, Initial residual = 0, Final residual = 0, No Iterations 0
time step continuity errors : sum local = 0.000195283, global = 2.05394e-05, cumulative = -0.000436491
DICPCG:  Solving for p, Initial residual = 0.0217129, Final residual = 7.74496e-07, No Iterations 52
diagonal:  Solving for rho, Initial residual = 0, Final residual = 0, No Iterations 0
time step continuity errors : sum local = 6.43853e-08, global = -1.07424e-09, cumulative = -0.000436492
ExecutionTime = 0.39 s  ClockTime = 1 s

Courant Number mean: 0.109116 max: 0.376255
deltaT = 0.000404698
Time = 0.00312013

diagonal:  Solving for rho, Initial residual = 0, Final residual = 0, No Iterations 0
PIMPLE: iteration 1
Yi.dim -> [0 0 0 0 0 0 0]
[1 -3 -1 0 0 0 0]
[0 3 -1 0 0 0 0]
[1 0 -1 0 0 0 0]

[1 -3 -1 0 0 0 0]
DILUPBiCGStab:  Solving for O2, Initial residual = 0.0225217, Final residual = 3.13279e-07, No Iterations 3
Yi.dim -> [0 0 0 0 0 0 0]
[1 -3 -1 0 0 0 0]
[0 3 -1 0 0 0 0]
[1 0 -1 0 0 0 0]

[1 -3 -1 0 0 0 0]
DILUPBiCGStab:  Solving for H2O, Initial residual = 0.882512, Final residual = 4.84561e-07, No Iterations 4
Yi.dim -> [0 0 0 0 0 0 0]
[1 -3 -1 0 0 0 0]
[0 3 -1 0 0 0 0]
[1 0 -1 0 0 0 0]

[1 -3 -1 0 0 0 0]
DILUPBiCGStab:  Solving for CH4, Initial residual = 0.0238532, Final residual = 2.36238e-07, No Iterations 3
Yi.dim -> [0 0 0 0 0 0 0]
[1 -3 -1 0 0 0 0]
[0 3 -1 0 0 0 0]
[1 0 -1 0 0 0 0]

[1 -3 -1 0 0 0 0]
DILUPBiCGStab:  Solving for CO2, Initial residual = 0.888129, Final residual = 4.87646e-07, No Iterations 4
DILUPBiCGStab:  Solving for h, Initial residual = 0.0190501, Final residual = 4.29733e-07, No Iterations 4
min/max(T) = 293, 1999.94
DICPCG:  Solving for p, Initial residual = 0.066301, Final residual = 0.00581813, No Iterations 20
diagonal:  Solving for rho, Initial residual = 0, Final residual = 0, No Iterations 0
time step continuity errors : sum local = 0.000172108, global = 1.84368e-05, cumulative = -0.000418055
DICPCG:  Solving for p, Initial residual = 0.0223485, Final residual = 8.0998e-07, No Iterations 52
diagonal:  Solving for rho, Initial residual = 0, Final residual = 0, No Iterations 0
time step continuity errors : sum local = 6.03478e-08, global = -1.90541e-09, cumulative = -0.000418057
ExecutionTime = 0.4 s  ClockTime = 1 s

Courant Number mean: 0.113527 max: 0.396613
deltaT = 0.000404698
Time = 0.00352483

diagonal:  Solving for rho, Initial residual = 0, Final residual = 0, No Iterations 0
PIMPLE: iteration 1
Yi.dim -> [0 0 0 0 0 0 0]
[1 -3 -1 0 0 0 0]
[0 3 -1 0 0 0 0]
[1 0 -1 0 0 0 0]

[1 -3 -1 0 0 0 0]
DILUPBiCGStab:  Solving for O2, Initial residual = 0.0200501, Final residual = 2.60909e-07, No Iterations 3
Yi.dim -> [0 0 0 0 0 0 0]
[1 -3 -1 0 0 0 0]
[0 3 -1 0 0 0 0]
[1 0 -1 0 0 0 0]

[1 -3 -1 0 0 0 0]
DILUPBiCGStab:  Solving for H2O, Initial residual = 0.834176, Final residual = 4.00918e-07, No Iterations 4
Yi.dim -> [0 0 0 0 0 0 0]
[1 -3 -1 0 0 0 0]
[0 3 -1 0 0 0 0]
[1 0 -1 0 0 0 0]

[1 -3 -1 0 0 0 0]
DILUPBiCGStab:  Solving for CH4, Initial residual = 0.0213031, Final residual = 9.12308e-07, No Iterations 3
Yi.dim -> [0 0 0 0 0 0 0]
[1 -3 -1 0 0 0 0]
[0 3 -1 0 0 0 0]
[1 0 -1 0 0 0 0]

[1 -3 -1 0 0 0 0]
DILUPBiCGStab:  Solving for CO2, Initial residual = 0.834398, Final residual = 4.01024e-07, No Iterations 4
DILUPBiCGStab:  Solving for h, Initial residual = 0.0171542, Final residual = 3.62585e-07, No Iterations 4
min/max(T) = 293, 1999.86
DICPCG:  Solving for p, Initial residual = 0.0669771, Final residual = 0.00580229, No Iterations 20
diagonal:  Solving for rho, Initial residual = 0, Final residual = 0, No Iterations 0
time step continuity errors : sum local = 0.000143332, global = 1.54411e-05, cumulative = -0.000402616
DICPCG:  Solving for p, Initial residual = 0.0244321, Final residual = 9.17932e-07, No Iterations 51
diagonal:  Solving for rho, Initial residual = 0, Final residual = 0, No Iterations 0
time step continuity errors : sum local = 5.37291e-08, global = 2.86256e-09, cumulative = -0.000402613
ExecutionTime = 0.4 s  ClockTime = 1 s

Courant Number mean: 0.113218 max: 0.396775
deltaT = 0.000404698
Time = 0.00392952

diagonal:  Solving for rho, Initial residual = 0, Final residual = 0, No Iterations 0
PIMPLE: iteration 1
Yi.dim -> [0 0 0 0 0 0 0]
[1 -3 -1 0 0 0 0]
[0 3 -1 0 0 0 0]
[1 0 -1 0 0 0 0]

[1 -3 -1 0 0 0 0]
DILUPBiCGStab:  Solving for O2, Initial residual = 0.0180683, Final residual = 2.21074e-07, No Iterations 3
Yi.dim -> [0 0 0 0 0 0 0]
[1 -3 -1 0 0 0 0]
[0 3 -1 0 0 0 0]
[1 0 -1 0 0 0 0]

[1 -3 -1 0 0 0 0]
DILUPBiCGStab:  Solving for H2O, Initial residual = 0.715582, Final residual = 4.05038e-07, No Iterations 4
Yi.dim -> [0 0 0 0 0 0 0]
[1 -3 -1 0 0 0 0]
[0 3 -1 0 0 0 0]
[1 0 -1 0 0 0 0]

[1 -3 -1 0 0 0 0]
DILUPBiCGStab:  Solving for CH4, Initial residual = 0.0192832, Final residual = 7.77602e-07, No Iterations 3
Yi.dim -> [0 0 0 0 0 0 0]
[1 -3 -1 0 0 0 0]
[0 3 -1 0 0 0 0]
[1 0 -1 0 0 0 0]

[1 -3 -1 0 0 0 0]
DILUPBiCGStab:  Solving for CO2, Initial residual = 0.715596, Final residual = 4.05046e-07, No Iterations 4
DILUPBiCGStab:  Solving for h, Initial residual = 0.0157936, Final residual = 3.32903e-07, No Iterations 4
min/max(T) = 293, 1999.73
DICPCG:  Solving for p, Initial residual = 0.0739966, Final residual = 0.006081, No Iterations 20
diagonal:  Solving for rho, Initial residual = 0, Final residual = 0, No Iterations 0
time step continuity errors : sum local = 0.000123356, global = 1.31674e-05, cumulative = -0.000389445
DICPCG:  Solving for p, Initial residual = 0.0249977, Final residual = 8.40381e-07, No Iterations 50
diagonal:  Solving for rho, Initial residual = 0, Final residual = 0, No Iterations 0
time step continuity errors : sum local = 4.03868e-08, global = 1.10039e-10, cumulative = -0.000389445
ExecutionTime = 0.41 s  ClockTime = 1 s

Courant Number mean: 0.114004 max: 0.395494
deltaT = 0.000404698
Time = 0.00433422

diagonal:  Solving for rho, Initial residual = 0, Final residual = 0, No Iterations 0
PIMPLE: iteration 1
Yi.dim -> [0 0 0 0 0 0 0]
[1 -3 -1 0 0 0 0]
[0 3 -1 0 0 0 0]
[1 0 -1 0 0 0 0]

[1 -3 -1 0 0 0 0]
DILUPBiCGStab:  Solving for O2, Initial residual = 0.016499, Final residual = 8.95984e-07, No Iterations 3
Yi.dim -> [0 0 0 0 0 0 0]
[1 -3 -1 0 0 0 0]
[0 3 -1 0 0 0 0]
[1 0 -1 0 0 0 0]

[1 -3 -1 0 0 0 0]
DILUPBiCGStab:  Solving for H2O, Initial residual = 0.626249, Final residual = 3.39622e-07, No Iterations 4
Yi.dim -> [0 0 0 0 0 0 0]
[1 -3 -1 0 0 0 0]
[0 3 -1 0 0 0 0]
[1 0 -1 0 0 0 0]

[1 -3 -1 0 0 0 0]
DILUPBiCGStab:  Solving for CH4, Initial residual = 0.017642, Final residual = 6.74268e-07, No Iterations 3
Yi.dim -> [0 0 0 0 0 0 0]
[1 -3 -1 0 0 0 0]
[0 3 -1 0 0 0 0]
[1 0 -1 0 0 0 0]

[1 -3 -1 0 0 0 0]
DILUPBiCGStab:  Solving for CO2, Initial residual = 0.62625, Final residual = 3.39623e-07, No Iterations 4
DILUPBiCGStab:  Solving for h, Initial residual = 0.014824, Final residual = 2.94519e-07, No Iterations 4
min/max(T) = 293, 1999.53
DICPCG:  Solving for p, Initial residual = 0.0837678, Final residual = 0.00584527, No Iterations 20
diagonal:  Solving for rho, Initial residual = 0, Final residual = 0, No Iterations 0
time step continuity errors : sum local = 9.94534e-05, global = 1.037e-05, cumulative = -0.000379075
DICPCG:  Solving for p, Initial residual = 0.0269983, Final residual = 9.53046e-07, No Iterations 49
diagonal:  Solving for rho, Initial residual = 0, Final residual = 0, No Iterations 0
time step continuity errors : sum local = 3.62001e-08, global = 4.45269e-11, cumulative = -0.000379075
ExecutionTime = 0.42 s  ClockTime = 1 s

Courant Number mean: 0.115082 max: 0.391929
deltaT = 0.000404698
Time = 0.00473892

diagonal:  Solving for rho, Initial residual = 0, Final residual = 0, No Iterations 0
PIMPLE: iteration 1
Yi.dim -> [0 0 0 0 0 0 0]
[1 -3 -1 0 0 0 0]
[0 3 -1 0 0 0 0]
[1 0 -1 0 0 0 0]

[1 -3 -1 0 0 0 0]
DILUPBiCGStab:  Solving for O2, Initial residual = 0.0151712, Final residual = 7.92705e-07, No Iterations 3
Yi.dim -> [0 0 0 0 0 0 0]
[1 -3 -1 0 0 0 0]
[0 3 -1 0 0 0 0]
[1 0 -1 0 0 0 0]

[1 -3 -1 0 0 0 0]
DILUPBiCGStab:  Solving for H2O, Initial residual = 0.548099, Final residual = 6.60577e-07, No Iterations 4
Yi.dim -> [0 0 0 0 0 0 0]
[1 -3 -1 0 0 0 0]
[0 3 -1 0 0 0 0]
[1 0 -1 0 0 0 0]

[1 -3 -1 0 0 0 0]
DILUPBiCGStab:  Solving for CH4, Initial residual = 0.0162822, Final residual = 5.93472e-07, No Iterations 3
Yi.dim -> [0 0 0 0 0 0 0]
[1 -3 -1 0 0 0 0]
[0 3 -1 0 0 0 0]
[1 0 -1 0 0 0 0]

[1 -3 -1 0 0 0 0]
DILUPBiCGStab:  Solving for CO2, Initial residual = 0.5481, Final residual = 6.60577e-07, No Iterations 4
DILUPBiCGStab:  Solving for h, Initial residual = 0.0141041, Final residual = 2.75229e-07, No Iterations 4
min/max(T) = 293, 1999.23
DICPCG:  Solving for p, Initial residual = 0.0951604, Final residual = 0.00670837, No Iterations 20
diagonal:  Solving for rho, Initial residual = 0, Final residual = 0, No Iterations 0
time step continuity errors : sum local = 9.29616e-05, global = 7.72921e-06, cumulative = -0.000371346
DICPCG:  Solving for p, Initial residual = 0.0265292, Final residual = 9.59887e-07, No Iterations 49
diagonal:  Solving for rho, Initial residual = 0, Final residual = 0, No Iterations 0
time step continuity errors : sum local = 3.18488e-08, global = 2.83815e-10, cumulative = -0.000371346
ExecutionTime = 0.45 s  ClockTime = 1 s

Courant Number mean: 0.116908 max: 0.391839
deltaT = 0.000404698
Time = 0.00514362

diagonal:  Solving for rho, Initial residual = 0, Final residual = 0, No Iterations 0
PIMPLE: iteration 1
Yi.dim -> [0 0 0 0 0 0 0]
[1 -3 -1 0 0 0 0]
[0 3 -1 0 0 0 0]
[1 0 -1 0 0 0 0]

[1 -3 -1 0 0 0 0]
DILUPBiCGStab:  Solving for O2, Initial residual = 0.0140839, Final residual = 7.11216e-07, No Iterations 3
Yi.dim -> [0 0 0 0 0 0 0]
[1 -3 -1 0 0 0 0]
[0 3 -1 0 0 0 0]
[1 0 -1 0 0 0 0]

[1 -3 -1 0 0 0 0]
DILUPBiCGStab:  Solving for H2O, Initial residual = 0.482916, Final residual = 5.67909e-07, No Iterations 4
Yi.dim -> [0 0 0 0 0 0 0]
[1 -3 -1 0 0 0 0]
[0 3 -1 0 0 0 0]
[1 0 -1 0 0 0 0]

[1 -3 -1 0 0 0 0]
DILUPBiCGStab:  Solving for CH4, Initial residual = 0.0151354, Final residual = 5.28215e-07, No Iterations 3
Yi.dim -> [0 0 0 0 0 0 0]
[1 -3 -1 0 0 0 0]
[0 3 -1 0 0 0 0]
[1 0 -1 0 0 0 0]

[1 -3 -1 0 0 0 0]
DILUPBiCGStab:  Solving for CO2, Initial residual = 0.482916, Final residual = 5.67909e-07, No Iterations 4
DILUPBiCGStab:  Solving for h, Initial residual = 0.0135319, Final residual = 2.65649e-07, No Iterations 4
min/max(T) = 293, 1998.8
DICPCG:  Solving for p, Initial residual = 0.104699, Final residual = 0.0102609, No Iterations 19
diagonal:  Solving for rho, Initial residual = 0, Final residual = 0, No Iterations 0
time step continuity errors : sum local = 0.000124051, global = 7.62099e-06, cumulative = -0.000363725
DICPCG:  Solving for p, Initial residual = 0.0298641, Final residual = 9.74428e-07, No Iterations 49
diagonal:  Solving for rho, Initial residual = 0, Final residual = 0, No Iterations 0
time step continuity errors : sum local = 2.58964e-08, global = -1.3605e-10, cumulative = -0.000363725
ExecutionTime = 0.46 s  ClockTime = 1 s

Courant Number mean: 0.118652 max: 0.389683
deltaT = 0.000404698
Time = 0.00554832

diagonal:  Solving for rho, Initial residual = 0, Final residual = 0, No Iterations 0
PIMPLE: iteration 1
Yi.dim -> [0 0 0 0 0 0 0]
[1 -3 -1 0 0 0 0]
[0 3 -1 0 0 0 0]
[1 0 -1 0 0 0 0]

[1 -3 -1 0 0 0 0]
DILUPBiCGStab:  Solving for O2, Initial residual = 0.0131362, Final residual = 6.38157e-07, No Iterations 3
Yi.dim -> [0 0 0 0 0 0 0]
[1 -3 -1 0 0 0 0]
[0 3 -1 0 0 0 0]
[1 0 -1 0 0 0 0]

[1 -3 -1 0 0 0 0]
DILUPBiCGStab:  Solving for H2O, Initial residual = 0.428144, Final residual = 5.48235e-07, No Iterations 4
Yi.dim -> [0 0 0 0 0 0 0]
[1 -3 -1 0 0 0 0]
[0 3 -1 0 0 0 0]
[1 0 -1 0 0 0 0]

[1 -3 -1 0 0 0 0]
DILUPBiCGStab:  Solving for CH4, Initial residual = 0.01416, Final residual = 4.74795e-07, No Iterations 3
Yi.dim -> [0 0 0 0 0 0 0]
[1 -3 -1 0 0 0 0]
[0 3 -1 0 0 0 0]
[1 0 -1 0 0 0 0]

[1 -3 -1 0 0 0 0]
DILUPBiCGStab:  Solving for CO2, Initial residual = 0.428144, Final residual = 5.48235e-07, No Iterations 4
DILUPBiCGStab:  Solving for h, Initial residual = 0.013066, Final residual = 2.60228e-07, No Iterations 4
min/max(T) = 293, 1998.22
DICPCG:  Solving for p, Initial residual = 0.11742, Final residual = 0.0109736, No Iterations 19
diagonal:  Solving for rho, Initial residual = 0, Final residual = 0, No Iterations 0
time step continuity errors : sum local = 0.000113546, global = 6.70885e-06, cumulative = -0.000357016
DICPCG:  Solving for p, Initial residual = 0.031678, Final residual = 9.99367e-07, No Iterations 49
diagonal:  Solving for rho, Initial residual = 0, Final residual = 0, No Iterations 0
time step continuity errors : sum local = 2.2613e-08, global = -2.06715e-10, cumulative = -0.000357016
ExecutionTime = 0.47 s  ClockTime = 1 s

Courant Number mean: 0.120554 max: 0.386571
deltaT = 0.000404698
Time = 0.00595302

diagonal:  Solving for rho, Initial residual = 0, Final residual = 0, No Iterations 0
PIMPLE: iteration 1
Yi.dim -> [0 0 0 0 0 0 0]
[1 -3 -1 0 0 0 0]
[0 3 -1 0 0 0 0]
[1 0 -1 0 0 0 0]

[1 -3 -1 0 0 0 0]
DILUPBiCGStab:  Solving for O2, Initial residual = 0.0123107, Final residual = 5.78114e-07, No Iterations 3
Yi.dim -> [0 0 0 0 0 0 0]
[1 -3 -1 0 0 0 0]
[0 3 -1 0 0 0 0]
[1 0 -1 0 0 0 0]

[1 -3 -1 0 0 0 0]
DILUPBiCGStab:  Solving for H2O, Initial residual = 0.381149, Final residual = 5.42649e-07, No Iterations 4
Yi.dim -> [0 0 0 0 0 0 0]
[1 -3 -1 0 0 0 0]
[0 3 -1 0 0 0 0]
[1 0 -1 0 0 0 0]

[1 -3 -1 0 0 0 0]
DILUPBiCGStab:  Solving for CH4, Initial residual = 0.013316, Final residual = 4.28259e-07, No Iterations 3
Yi.dim -> [0 0 0 0 0 0 0]
[1 -3 -1 0 0 0 0]
[0 3 -1 0 0 0 0]
[1 0 -1 0 0 0 0]

[1 -3 -1 0 0 0 0]
DILUPBiCGStab:  Solving for CO2, Initial residual = 0.381149, Final residual = 5.42649e-07, No Iterations 4
DILUPBiCGStab:  Solving for h, Initial residual = 0.0126667, Final residual = 2.55209e-07, No Iterations 4
min/max(T) = 293, 1997.46
DICPCG:  Solving for p, Initial residual = 0.124103, Final residual = 0.0116146, No Iterations 18
diagonal:  Solving for rho, Initial residual = 0, Final residual = 0, No Iterations 0
time step continuity errors : sum local = 0.000104868, global = 8.37044e-06, cumulative = -0.000348646
DICPCG:  Solving for p, Initial residual = 0.0340749, Final residual = 8.68901e-07, No Iterations 50
diagonal:  Solving for rho, Initial residual = 0, Final residual = 0, No Iterations 0
time step continuity errors : sum local = 1.65324e-08, global = 5.53412e-11, cumulative = -0.000348646
ExecutionTime = 0.49 s  ClockTime = 1 s

Courant Number mean: 0.122488 max: 0.383679
deltaT = 0.000404698
Time = 0.00635771

diagonal:  Solving for rho, Initial residual = 0, Final residual = 0, No Iterations 0
PIMPLE: iteration 1
Yi.dim -> [0 0 0 0 0 0 0]
[1 -3 -1 0 0 0 0]
[0 3 -1 0 0 0 0]
[1 0 -1 0 0 0 0]

[1 -3 -1 0 0 0 0]
DILUPBiCGStab:  Solving for O2, Initial residual = 0.0115865, Final residual = 5.26348e-07, No Iterations 3
Yi.dim -> [0 0 0 0 0 0 0]
[1 -3 -1 0 0 0 0]
[0 3 -1 0 0 0 0]
[1 0 -1 0 0 0 0]

[1 -3 -1 0 0 0 0]
DILUPBiCGStab:  Solving for H2O, Initial residual = 0.34112, Final residual = 4.03716e-07, No Iterations 4
Yi.dim -> [0 0 0 0 0 0 0]
[1 -3 -1 0 0 0 0]
[0 3 -1 0 0 0 0]
[1 0 -1 0 0 0 0]

[1 -3 -1 0 0 0 0]
DILUPBiCGStab:  Solving for CH4, Initial residual = 0.0125779, Final residual = 3.88139e-07, No Iterations 3
Yi.dim -> [0 0 0 0 0 0 0]
[1 -3 -1 0 0 0 0]
[0 3 -1 0 0 0 0]
[1 0 -1 0 0 0 0]

[1 -3 -1 0 0 0 0]
DILUPBiCGStab:  Solving for CO2, Initial residual = 0.34112, Final residual = 4.03716e-07, No Iterations 4
DILUPBiCGStab:  Solving for h, Initial residual = 0.0123327, Final residual = 2.50867e-07, No Iterations 4
min/max(T) = 293, 1996.5
DICPCG:  Solving for p, Initial residual = 0.13016, Final residual = 0.011685, No Iterations 18
diagonal:  Solving for rho, Initial residual = 0, Final residual = 0, No Iterations 0
time step continuity errors : sum local = 9.51323e-05, global = 8.49655e-06, cumulative = -0.000340149
DICPCG:  Solving for p, Initial residual = 0.0357871, Final residual = 8.9484e-07, No Iterations 50
diagonal:  Solving for rho, Initial residual = 0, Final residual = 0, No Iterations 0
time step continuity errors : sum local = 1.47199e-08, global = 1.85081e-10, cumulative = -0.000340149
ExecutionTime = 0.5 s  ClockTime = 1 s

Courant Number mean: 0.124415 max: 0.381797
deltaT = 0.000404698
Time = 0.00676241

diagonal:  Solving for rho, Initial residual = 0, Final residual = 0, No Iterations 0
PIMPLE: iteration 1
Yi.dim -> [0 0 0 0 0 0 0]
[1 -3 -1 0 0 0 0]
[0 3 -1 0 0 0 0]
[1 0 -1 0 0 0 0]

[1 -3 -1 0 0 0 0]
DILUPBiCGStab:  Solving for O2, Initial residual = 0.0109451, Final residual = 4.81352e-07, No Iterations 3
Yi.dim -> [0 0 0 0 0 0 0]
[1 -3 -1 0 0 0 0]
[0 3 -1 0 0 0 0]
[1 0 -1 0 0 0 0]

[1 -3 -1 0 0 0 0]
DILUPBiCGStab:  Solving for H2O, Initial residual = 0.306656, Final residual = 2.98227e-07, No Iterations 4
Yi.dim -> [0 0 0 0 0 0 0]
[1 -3 -1 0 0 0 0]
[0 3 -1 0 0 0 0]
[1 0 -1 0 0 0 0]

[1 -3 -1 0 0 0 0]
DILUPBiCGStab:  Solving for CH4, Initial residual = 0.0119242, Final residual = 3.54357e-07, No Iterations 3
Yi.dim -> [0 0 0 0 0 0 0]
[1 -3 -1 0 0 0 0]
[0 3 -1 0 0 0 0]
[1 0 -1 0 0 0 0]

[1 -3 -1 0 0 0 0]
DILUPBiCGStab:  Solving for CO2, Initial residual = 0.306656, Final residual = 2.98227e-07, No Iterations 4
DILUPBiCGStab:  Solving for h, Initial residual = 0.0120546, Final residual = 2.46867e-07, No Iterations 4
min/max(T) = 293, 1995.3
DICPCG:  Solving for p, Initial residual = 0.141103, Final residual = 0.0118323, No Iterations 18
diagonal:  Solving for rho, Initial residual = 0, Final residual = 0, No Iterations 0
time step continuity errors : sum local = 8.51176e-05, global = 7.83039e-06, cumulative = -0.000332319
DICPCG:  Solving for p, Initial residual = 0.0379259, Final residual = 8.66845e-07, No Iterations 50
diagonal:  Solving for rho, Initial residual = 0, Final residual = 0, No Iterations 0
time step continuity errors : sum local = 1.23718e-08, global = 1.30815e-10, cumulative = -0.000332319
ExecutionTime = 0.51 s  ClockTime = 1 s

[...]
time step continuity errors : sum local = 3.59066e-06, global = 3.02981e-07, cumulative = -0.000201702
DICPCG:  Solving for p, Initial residual = 0.0202043, Final residual = 7.32445e-07, No Iterations 54
diagonal:  Solving for rho, Initial residual = 0, Final residual = 0, No Iterations 0
time step continuity errors : sum local = 1.81478e-09, global = -6.95474e-11, cumulative = -0.000201702
ExecutionTime = 2.19 s  ClockTime = 2 s

Courant Number mean: 0.240526 max: 0.403324
deltaT = 0.0005
Time = 0.045

diagonal:  Solving for rho, Initial residual = 0, Final residual = 0, No Iterations 0
PIMPLE: iteration 1
Yi.dim -> [0 0 0 0 0 0 0]
[1 -3 -1 0 0 0 0]
[0 3 -1 0 0 0 0]
[1 0 -1 0 0 0 0]

[1 -3 -1 0 0 0 0]
DILUPBiCGStab:  Solving for O2, Initial residual = 0.00127614, Final residual = 1.89995e-07, No Iterations 2
Yi.dim -> [0 0 0 0 0 0 0]
[1 -3 -1 0 0 0 0]
[0 3 -1 0 0 0 0]
[1 0 -1 0 0 0 0]

[1 -3 -1 0 0 0 0]
DILUPBiCGStab:  Solving for H2O, Initial residual = 0.00768025, Final residual = 4.22978e-07, No Iterations 3
Yi.dim -> [0 0 0 0 0 0 0]
[1 -3 -1 0 0 0 0]
[0 3 -1 0 0 0 0]
[1 0 -1 0 0 0 0]

[1 -3 -1 0 0 0 0]
DILUPBiCGStab:  Solving for CH4, Initial residual = 0.00191299, Final residual = 3.14222e-07, No Iterations 2
Yi.dim -> [0 0 0 0 0 0 0]
[1 -3 -1 0 0 0 0]
[0 3 -1 0 0 0 0]
[1 0 -1 0 0 0 0]

[1 -3 -1 0 0 0 0]
DILUPBiCGStab:  Solving for CO2, Initial residual = 0.00768025, Final residual = 4.22978e-07, No Iterations 3
DILUPBiCGStab:  Solving for h, Initial residual = 0.00304728, Final residual = 4.44993e-07, No Iterations 3
min/max(T) = 293, 1709.75
DICPCG:  Solving for p, Initial residual = 0.0287054, Final residual = 0.00204649, No Iterations 22
diagonal:  Solving for rho, Initial residual = 0, Final residual = 0, No Iterations 0
time step continuity errors : sum local = 3.6081e-06, global = 2.75185e-07, cumulative = -0.000201427
DICPCG:  Solving for p, Initial residual = 0.0201346, Final residual = 7.58958e-07, No Iterations 54
diagonal:  Solving for rho, Initial residual = 0, Final residual = 0, No Iterations 0
time step continuity errors : sum local = 1.8571e-09, global = -7.38343e-11, cumulative = -0.000201427
ExecutionTime = 2.21 s  ClockTime = 3 s

Courant Number mean: 0.241322 max: 0.403745
deltaT = 0.0005
Time = 0.0455

diagonal:  Solving for rho, Initial residual = 0, Final residual = 0, No Iterations 0
PIMPLE: iteration 1
Yi.dim -> [0 0 0 0 0 0 0]
[1 -3 -1 0 0 0 0]
[0 3 -1 0 0 0 0]
[1 0 -1 0 0 0 0]

[1 -3 -1 0 0 0 0]
DILUPBiCGStab:  Solving for O2, Initial residual = 0.00124513, Final residual = 1.87289e-07, No Iterations 2
Yi.dim -> [0 0 0 0 0 0 0]
[1 -3 -1 0 0 0 0]
[0 3 -1 0 0 0 0]
[1 0 -1 0 0 0 0]

[1 -3 -1 0 0 0 0]
DILUPBiCGStab:  Solving for H2O, Initial residual = 0.00751812, Final residual = 4.0767e-07, No Iterations 3
Yi.dim -> [0 0 0 0 0 0 0]
[1 -3 -1 0 0 0 0]
[0 3 -1 0 0 0 0]
[1 0 -1 0 0 0 0]

[1 -3 -1 0 0 0 0]
DILUPBiCGStab:  Solving for CH4, Initial residual = 0.00187987, Final residual = 3.08427e-07, No Iterations 2
Yi.dim -> [0 0 0 0 0 0 0]
[1 -3 -1 0 0 0 0]
[0 3 -1 0 0 0 0]
[1 0 -1 0 0 0 0]

[1 -3 -1 0 0 0 0]
DILUPBiCGStab:  Solving for CO2, Initial residual = 0.00751812, Final residual = 4.0767e-07, No Iterations 3
DILUPBiCGStab:  Solving for h, Initial residual = 0.00299805, Final residual = 4.38848e-07, No Iterations 3
min/max(T) = 293, 1710.3
DICPCG:  Solving for p, Initial residual = 0.0283145, Final residual = 0.00211842, No Iterations 22
diagonal:  Solving for rho, Initial residual = 0, Final residual = 0, No Iterations 0
time step continuity errors : sum local = 3.73398e-06, global = 2.79056e-07, cumulative = -0.000201148
DICPCG:  Solving for p, Initial residual = 0.0199796, Final residual = 7.68243e-07, No Iterations 54
diagonal:  Solving for rho, Initial residual = 0, Final residual = 0, No Iterations 0
time step continuity errors : sum local = 1.8623e-09, global = -5.97255e-11, cumulative = -0.000201148
ExecutionTime = 2.24 s  ClockTime = 3 s

Courant Number mean: 0.242109 max: 0.404356
deltaT = 0.0005
Time = 0.046

diagonal:  Solving for rho, Initial residual = 0, Final residual = 0, No Iterations 0
PIMPLE: iteration 1
Yi.dim -> [0 0 0 0 0 0 0]
[1 -3 -1 0 0 0 0]
[0 3 -1 0 0 0 0]
[1 0 -1 0 0 0 0]

[1 -3 -1 0 0 0 0]
DILUPBiCGStab:  Solving for O2, Initial residual = 0.00121503, Final residual = 1.85253e-07, No Iterations 2
Yi.dim -> [0 0 0 0 0 0 0]
[1 -3 -1 0 0 0 0]
[0 3 -1 0 0 0 0]
[1 0 -1 0 0 0 0]

[1 -3 -1 0 0 0 0]
DILUPBiCGStab:  Solving for H2O, Initial residual = 0.00736014, Final residual = 3.99085e-07, No Iterations 3
Yi.dim -> [0 0 0 0 0 0 0]
[1 -3 -1 0 0 0 0]
[0 3 -1 0 0 0 0]
[1 0 -1 0 0 0 0]

[1 -3 -1 0 0 0 0]
DILUPBiCGStab:  Solving for CH4, Initial residual = 0.00184742, Final residual = 3.04265e-07, No Iterations 2
Yi.dim -> [0 0 0 0 0 0 0]
[1 -3 -1 0 0 0 0]
[0 3 -1 0 0 0 0]
[1 0 -1 0 0 0 0]

[1 -3 -1 0 0 0 0]
DILUPBiCGStab:  Solving for CO2, Initial residual = 0.00736014, Final residual = 3.99085e-07, No Iterations 3
DILUPBiCGStab:  Solving for h, Initial residual = 0.00294974, Final residual = 4.33157e-07, No Iterations 3
min/max(T) = 293, 1710.91
DICPCG:  Solving for p, Initial residual = 0.027669, Final residual = 0.0021146, No Iterations 22
diagonal:  Solving for rho, Initial residual = 0, Final residual = 0, No Iterations 0
time step continuity errors : sum local = 3.72842e-06, global = 2.95834e-07, cumulative = -0.000200852
DICPCG:  Solving for p, Initial residual = 0.0196161, Final residual = 7.75329e-07, No Iterations 54
diagonal:  Solving for rho, Initial residual = 0, Final residual = 0, No Iterations 0
time step continuity errors : sum local = 1.8702e-09, global = -7.32266e-11, cumulative = -0.000200852
ExecutionTime = 2.26 s  ClockTime = 3 s

Courant Number mean: 0.242893 max: 0.405042
deltaT = 0.0005
Time = 0.0465

diagonal:  Solving for rho, Initial residual = 0, Final residual = 0, No Iterations 0
PIMPLE: iteration 1
Yi.dim -> [0 0 0 0 0 0 0]
[1 -3 -1 0 0 0 0]
[0 3 -1 0 0 0 0]
[1 0 -1 0 0 0 0]

[1 -3 -1 0 0 0 0]
DILUPBiCGStab:  Solving for O2, Initial residual = 0.00118592, Final residual = 9.9446e-07, No Iterations 2
Yi.dim -> [0 0 0 0 0 0 0]
[1 -3 -1 0 0 0 0]
[0 3 -1 0 0 0 0]
[1 0 -1 0 0 0 0]

[1 -3 -1 0 0 0 0]
DILUPBiCGStab:  Solving for H2O, Initial residual = 0.00719563, Final residual = 3.81669e-07, No Iterations 3
Yi.dim -> [0 0 0 0 0 0 0]
[1 -3 -1 0 0 0 0]
[0 3 -1 0 0 0 0]
[1 0 -1 0 0 0 0]

[1 -3 -1 0 0 0 0]
DILUPBiCGStab:  Solving for CH4, Initial residual = 0.00181571, Final residual = 2.99397e-07, No Iterations 2
Yi.dim -> [0 0 0 0 0 0 0]
[1 -3 -1 0 0 0 0]
[0 3 -1 0 0 0 0]
[1 0 -1 0 0 0 0]

[1 -3 -1 0 0 0 0]
DILUPBiCGStab:  Solving for CO2, Initial residual = 0.00719563, Final residual = 3.81669e-07, No Iterations 3
DILUPBiCGStab:  Solving for h, Initial residual = 0.00289998, Final residual = 4.13443e-07, No Iterations 3
min/max(T) = 293, 1711.56
DICPCG:  Solving for p, Initial residual = 0.0279111, Final residual = 0.00220406, No Iterations 22
diagonal:  Solving for rho, Initial residual = 0, Final residual = 0, No Iterations 0
time step continuity errors : sum local = 3.89635e-06, global = 2.88606e-07, cumulative = -0.000200564
DICPCG:  Solving for p, Initial residual = 0.0199197, Final residual = 9.61992e-07, No Iterations 54
diagonal:  Solving for rho, Initial residual = 0, Final residual = 0, No Iterations 0
time step continuity errors : sum local = 2.29639e-09, global = -4.96836e-11, cumulative = -0.000200564
ExecutionTime = 2.28 s  ClockTime = 3 s

Courant Number mean: 0.243678 max: 0.405654
deltaT = 0.0005
Time = 0.047

diagonal:  Solving for rho, Initial residual = 0, Final residual = 0, No Iterations 0
PIMPLE: iteration 1
Yi.dim -> [0 0 0 0 0 0 0]
[1 -3 -1 0 0 0 0]
[0 3 -1 0 0 0 0]
[1 0 -1 0 0 0 0]

[1 -3 -1 0 0 0 0]
DILUPBiCGStab:  Solving for O2, Initial residual = 0.00115753, Final residual = 9.8245e-07, No Iterations 2
Yi.dim -> [0 0 0 0 0 0 0]
[1 -3 -1 0 0 0 0]
[0 3 -1 0 0 0 0]
[1 0 -1 0 0 0 0]

[1 -3 -1 0 0 0 0]
DILUPBiCGStab:  Solving for H2O, Initial residual = 0.00704883, Final residual = 3.7798e-07, No Iterations 3
Yi.dim -> [0 0 0 0 0 0 0]
[1 -3 -1 0 0 0 0]
[0 3 -1 0 0 0 0]
[1 0 -1 0 0 0 0]

[1 -3 -1 0 0 0 0]
DILUPBiCGStab:  Solving for CH4, Initial residual = 0.00178455, Final residual = 2.94294e-07, No Iterations 2
Yi.dim -> [0 0 0 0 0 0 0]
[1 -3 -1 0 0 0 0]
[0 3 -1 0 0 0 0]
[1 0 -1 0 0 0 0]

[1 -3 -1 0 0 0 0]
DILUPBiCGStab:  Solving for CO2, Initial residual = 0.00704883, Final residual = 3.7798e-07, No Iterations 3
DILUPBiCGStab:  Solving for h, Initial residual = 0.00285428, Final residual = 4.10268e-07, No Iterations 3
min/max(T) = 293, 1712.01
DICPCG:  Solving for p, Initial residual = 0.0274719, Final residual = 0.00189734, No Iterations 22
diagonal:  Solving for rho, Initial residual = 0, Final residual = 0, No Iterations 0
time step continuity errors : sum local = 3.3574e-06, global = 3.45478e-07, cumulative = -0.000200218
DICPCG:  Solving for p, Initial residual = 0.0196006, Final residual = 8.75243e-07, No Iterations 54
diagonal:  Solving for rho, Initial residual = 0, Final residual = 0, No Iterations 0
time step continuity errors : sum local = 2.08607e-09, global = -7.8409e-11, cumulative = -0.000200219
ExecutionTime = 2.3 s  ClockTime = 3 s

Courant Number mean: 0.244452 max: 0.406204
deltaT = 0.0005
Time = 0.0475

diagonal:  Solving for rho, Initial residual = 0, Final residual = 0, No Iterations 0
PIMPLE: iteration 1
Yi.dim -> [0 0 0 0 0 0 0]
[1 -3 -1 0 0 0 0]
[0 3 -1 0 0 0 0]
[1 0 -1 0 0 0 0]

[1 -3 -1 0 0 0 0]
DILUPBiCGStab:  Solving for O2, Initial residual = 0.00112958, Final residual = 9.58788e-07, No Iterations 2
Yi.dim -> [0 0 0 0 0 0 0]
[1 -3 -1 0 0 0 0]
[0 3 -1 0 0 0 0]
[1 0 -1 0 0 0 0]

[1 -3 -1 0 0 0 0]
DILUPBiCGStab:  Solving for H2O, Initial residual = 0.0069103, Final residual = 3.67319e-07, No Iterations 3
Yi.dim -> [0 0 0 0 0 0 0]
[1 -3 -1 0 0 0 0]
[0 3 -1 0 0 0 0]
[1 0 -1 0 0 0 0]

[1 -3 -1 0 0 0 0]
DILUPBiCGStab:  Solving for CH4, Initial residual = 0.00175394, Final residual = 2.90227e-07, No Iterations 2
Yi.dim -> [0 0 0 0 0 0 0]
[1 -3 -1 0 0 0 0]
[0 3 -1 0 0 0 0]
[1 0 -1 0 0 0 0]

[1 -3 -1 0 0 0 0]
DILUPBiCGStab:  Solving for CO2, Initial residual = 0.0069103, Final residual = 3.67319e-07, No Iterations 3
DILUPBiCGStab:  Solving for h, Initial residual = 0.00281077, Final residual = 4.09627e-07, No Iterations 3
min/max(T) = 293, 1712.74
DICPCG:  Solving for p, Initial residual = 0.0268829, Final residual = 0.00197714, No Iterations 22
diagonal:  Solving for rho, Initial residual = 0, Final residual = 0, No Iterations 0
time step continuity errors : sum local = 3.50334e-06, global = 3.24514e-07, cumulative = -0.000199894
DICPCG:  Solving for p, Initial residual = 0.0189467, Final residual = 7.57923e-07, No Iterations 54
diagonal:  Solving for rho, Initial residual = 0, Final residual = 0, No Iterations 0
time step continuity errors : sum local = 1.82556e-09, global = -9.26927e-11, cumulative = -0.000199894
ExecutionTime = 2.32 s  ClockTime = 3 s

Courant Number mean: 0.245234 max: 0.406708
deltaT = 0.0005
Time = 0.048

diagonal:  Solving for rho, Initial residual = 0, Final residual = 0, No Iterations 0
PIMPLE: iteration 1
Yi.dim -> [0 0 0 0 0 0 0]
[1 -3 -1 0 0 0 0]
[0 3 -1 0 0 0 0]
[1 0 -1 0 0 0 0]

[1 -3 -1 0 0 0 0]
DILUPBiCGStab:  Solving for O2, Initial residual = 0.00110241, Final residual = 9.44093e-07, No Iterations 2
Yi.dim -> [0 0 0 0 0 0 0]
[1 -3 -1 0 0 0 0]
[0 3 -1 0 0 0 0]
[1 0 -1 0 0 0 0]

[1 -3 -1 0 0 0 0]
DILUPBiCGStab:  Solving for H2O, Initial residual = 0.0067704, Final residual = 3.63147e-07, No Iterations 3
Yi.dim -> [0 0 0 0 0 0 0]
[1 -3 -1 0 0 0 0]
[0 3 -1 0 0 0 0]
[1 0 -1 0 0 0 0]

[1 -3 -1 0 0 0 0]
DILUPBiCGStab:  Solving for CH4, Initial residual = 0.00172378, Final residual = 2.85567e-07, No Iterations 2
Yi.dim -> [0 0 0 0 0 0 0]
[1 -3 -1 0 0 0 0]
[0 3 -1 0 0 0 0]
[1 0 -1 0 0 0 0]

[1 -3 -1 0 0 0 0]
DILUPBiCGStab:  Solving for CO2, Initial residual = 0.0067704, Final residual = 3.63147e-07, No Iterations 3
DILUPBiCGStab:  Solving for h, Initial residual = 0.00276629, Final residual = 4.04673e-07, No Iterations 3
min/max(T) = 293, 1713.53
DICPCG:  Solving for p, Initial residual = 0.0261824, Final residual = 0.00197422, No Iterations 22
diagonal:  Solving for rho, Initial residual = 0, Final residual = 0, No Iterations 0
time step continuity errors : sum local = 3.52875e-06, global = 3.34831e-07, cumulative = -0.000199559
DICPCG:  Solving for p, Initial residual = 0.018727, Final residual = 7.39463e-07, No Iterations 54
diagonal:  Solving for rho, Initial residual = 0, Final residual = 0, No Iterations 0
time step continuity errors : sum local = 1.80042e-09, global = -7.15341e-11, cumulative = -0.000199559
ExecutionTime = 2.34 s  ClockTime = 3 s

Courant Number mean: 0.246023 max: 0.407215
deltaT = 0.0005
Time = 0.0485

diagonal:  Solving for rho, Initial residual = 0, Final residual = 0, No Iterations 0
PIMPLE: iteration 1
Yi.dim -> [0 0 0 0 0 0 0]
[1 -3 -1 0 0 0 0]
[0 3 -1 0 0 0 0]
[1 0 -1 0 0 0 0]

[1 -3 -1 0 0 0 0]
DILUPBiCGStab:  Solving for O2, Initial residual = 0.00107608, Final residual = 9.24575e-07, No Iterations 2
Yi.dim -> [0 0 0 0 0 0 0]
[1 -3 -1 0 0 0 0]
[0 3 -1 0 0 0 0]
[1 0 -1 0 0 0 0]

[1 -3 -1 0 0 0 0]
DILUPBiCGStab:  Solving for H2O, Initial residual = 0.00663255, Final residual = 3.54261e-07, No Iterations 3
Yi.dim -> [0 0 0 0 0 0 0]
[1 -3 -1 0 0 0 0]
[0 3 -1 0 0 0 0]
[1 0 -1 0 0 0 0]

[1 -3 -1 0 0 0 0]
DILUPBiCGStab:  Solving for CH4, Initial residual = 0.00169415, Final residual = 2.80376e-07, No Iterations 2
Yi.dim -> [0 0 0 0 0 0 0]
[1 -3 -1 0 0 0 0]
[0 3 -1 0 0 0 0]
[1 0 -1 0 0 0 0]

[1 -3 -1 0 0 0 0]
DILUPBiCGStab:  Solving for CO2, Initial residual = 0.00663255, Final residual = 3.54261e-07, No Iterations 3
DILUPBiCGStab:  Solving for h, Initial residual = 0.00272223, Final residual = 3.95147e-07, No Iterations 3
min/max(T) = 293, 1714.38
DICPCG:  Solving for p, Initial residual = 0.0254243, Final residual = 0.00195251, No Iterations 22
diagonal:  Solving for rho, Initial residual = 0, Final residual = 0, No Iterations 0
time step continuity errors : sum local = 3.51497e-06, global = 2.75279e-07, cumulative = -0.000199284
DICPCG:  Solving for p, Initial residual = 0.0184507, Final residual = 7.22765e-07, No Iterations 54
diagonal:  Solving for rho, Initial residual = 0, Final residual = 0, No Iterations 0
time step continuity errors : sum local = 1.74735e-09, global = -7.97229e-11, cumulative = -0.000199284
ExecutionTime = 2.37 s  ClockTime = 3 s

Courant Number mean: 0.246811 max: 0.407993
deltaT = 0.0005
Time = 0.049

diagonal:  Solving for rho, Initial residual = 0, Final residual = 0, No Iterations 0
PIMPLE: iteration 1
Yi.dim -> [0 0 0 0 0 0 0]
[1 -3 -1 0 0 0 0]
[0 3 -1 0 0 0 0]
[1 0 -1 0 0 0 0]

[1 -3 -1 0 0 0 0]
DILUPBiCGStab:  Solving for O2, Initial residual = 0.00105045, Final residual = 9.08584e-07, No Iterations 2
Yi.dim -> [0 0 0 0 0 0 0]
[1 -3 -1 0 0 0 0]
[0 3 -1 0 0 0 0]
[1 0 -1 0 0 0 0]

[1 -3 -1 0 0 0 0]
DILUPBiCGStab:  Solving for H2O, Initial residual = 0.0064973, Final residual = 3.46234e-07, No Iterations 3
Yi.dim -> [0 0 0 0 0 0 0]
[1 -3 -1 0 0 0 0]
[0 3 -1 0 0 0 0]
[1 0 -1 0 0 0 0]

[1 -3 -1 0 0 0 0]
DILUPBiCGStab:  Solving for CH4, Initial residual = 0.00166508, Final residual = 2.75623e-07, No Iterations 2
Yi.dim -> [0 0 0 0 0 0 0]
[1 -3 -1 0 0 0 0]
[0 3 -1 0 0 0 0]
[1 0 -1 0 0 0 0]

[1 -3 -1 0 0 0 0]
DILUPBiCGStab:  Solving for CO2, Initial residual = 0.0064973, Final residual = 3.46234e-07, No Iterations 3
DILUPBiCGStab:  Solving for h, Initial residual = 0.00267887, Final residual = 3.91342e-07, No Iterations 3
min/max(T) = 293, 1715.28
DICPCG:  Solving for p, Initial residual = 0.0251292, Final residual = 0.00189776, No Iterations 22
diagonal:  Solving for rho, Initial residual = 0, Final residual = 0, No Iterations 0
time step continuity errors : sum local = 3.42817e-06, global = 3.00977e-07, cumulative = -0.000198983
DICPCG:  Solving for p, Initial residual = 0.0182338, Final residual = 7.20888e-07, No Iterations 54
diagonal:  Solving for rho, Initial residual = 0, Final residual = 0, No Iterations 0
time step continuity errors : sum local = 1.74948e-09, global = -6.76189e-11, cumulative = -0.000198983
ExecutionTime = 2.39 s  ClockTime = 3 s

Courant Number mean: 0.247596 max: 0.408715
deltaT = 0.0005
Time = 0.0495

diagonal:  Solving for rho, Initial residual = 0, Final residual = 0, No Iterations 0
PIMPLE: iteration 1
Yi.dim -> [0 0 0 0 0 0 0]
[1 -3 -1 0 0 0 0]
[0 3 -1 0 0 0 0]
[1 0 -1 0 0 0 0]

[1 -3 -1 0 0 0 0]
DILUPBiCGStab:  Solving for O2, Initial residual = 0.00102526, Final residual = 8.89946e-07, No Iterations 2
Yi.dim -> [0 0 0 0 0 0 0]
[1 -3 -1 0 0 0 0]
[0 3 -1 0 0 0 0]
[1 0 -1 0 0 0 0]

[1 -3 -1 0 0 0 0]
DILUPBiCGStab:  Solving for H2O, Initial residual = 0.00637038, Final residual = 3.39756e-07, No Iterations 3
Yi.dim -> [0 0 0 0 0 0 0]
[1 -3 -1 0 0 0 0]
[0 3 -1 0 0 0 0]
[1 0 -1 0 0 0 0]

[1 -3 -1 0 0 0 0]
DILUPBiCGStab:  Solving for CH4, Initial residual = 0.00163646, Final residual = 2.70465e-07, No Iterations 2
Yi.dim -> [0 0 0 0 0 0 0]
[1 -3 -1 0 0 0 0]
[0 3 -1 0 0 0 0]
[1 0 -1 0 0 0 0]

[1 -3 -1 0 0 0 0]
DILUPBiCGStab:  Solving for CO2, Initial residual = 0.00637038, Final residual = 3.39756e-07, No Iterations 3
DILUPBiCGStab:  Solving for h, Initial residual = 0.00263747, Final residual = 3.80566e-07, No Iterations 3
min/max(T) = 293, 1716.24
DICPCG:  Solving for p, Initial residual = 0.0245633, Final residual = 0.00190383, No Iterations 22
diagonal:  Solving for rho, Initial residual = 0, Final residual = 0, No Iterations 0
time step continuity errors : sum local = 3.45149e-06, global = 3.39465e-07, cumulative = -0.000198644
DICPCG:  Solving for p, Initial residual = 0.0179251, Final residual = 8.24151e-07, No Iterations 54
diagonal:  Solving for rho, Initial residual = 0, Final residual = 0, No Iterations 0
time step continuity errors : sum local = 1.9806e-09, global = -1.0258e-10, cumulative = -0.000198644
ExecutionTime = 2.4 s  ClockTime = 3 s

Courant Number mean: 0.24838 max: 0.409377
deltaT = 0.0005
Time = 0.05

diagonal:  Solving for rho, Initial residual = 0, Final residual = 0, No Iterations 0
PIMPLE: iteration 1
Yi.dim -> [0 0 0 0 0 0 0]
[1 -3 -1 0 0 0 0]
[0 3 -1 0 0 0 0]
[1 0 -1 0 0 0 0]

[1 -3 -1 0 0 0 0]
DILUPBiCGStab:  Solving for O2, Initial residual = 0.00100081, Final residual = 8.79554e-07, No Iterations 2
Yi.dim -> [0 0 0 0 0 0 0]
[1 -3 -1 0 0 0 0]
[0 3 -1 0 0 0 0]
[1 0 -1 0 0 0 0]

[1 -3 -1 0 0 0 0]
DILUPBiCGStab:  Solving for H2O, Initial residual = 0.00624193, Final residual = 3.35111e-07, No Iterations 3
Yi.dim -> [0 0 0 0 0 0 0]
[1 -3 -1 0 0 0 0]
[0 3 -1 0 0 0 0]
[1 0 -1 0 0 0 0]

[1 -3 -1 0 0 0 0]
DILUPBiCGStab:  Solving for CH4, Initial residual = 0.00160833, Final residual = 2.67038e-07, No Iterations 2
Yi.dim -> [0 0 0 0 0 0 0]
[1 -3 -1 0 0 0 0]
[0 3 -1 0 0 0 0]
[1 0 -1 0 0 0 0]

[1 -3 -1 0 0 0 0]
DILUPBiCGStab:  Solving for CO2, Initial residual = 0.00624193, Final residual = 3.35111e-07, No Iterations 3
DILUPBiCGStab:  Solving for h, Initial residual = 0.00259529, Final residual = 3.82902e-07, No Iterations 3
min/max(T) = 293, 1717.2
DICPCG:  Solving for p, Initial residual = 0.024183, Final residual = 0.0018914, No Iterations 22
diagonal:  Solving for rho, Initial residual = 0, Final residual = 0, No Iterations 0
time step continuity errors : sum local = 3.44879e-06, global = 3.19692e-07, cumulative = -0.000198324
DICPCG:  Solving for p, Initial residual = 0.0178053, Final residual = 7.52182e-07, No Iterations 54
diagonal:  Solving for rho, Initial residual = 0, Final residual = 0, No Iterations 0
time step continuity errors : sum local = 1.80963e-09, global = -7.63526e-11, cumulative = -0.000198324
ExecutionTime = 2.45 s  ClockTime = 3 s

BilgerMixtureFraction BilgerMixtureFraction1 write:
    writing field f_Bilger
    functionObjects::BilgerMixtureFraction BilgerMixtureFraction1 writing field: f_Bilger
End

