/*---------------------------------------------------------------------------*\
| =========                 |                                                 |
| \\      /  F ield         | OpenFOAM: The Open Source CFD Toolbox           |
|  \\    /   O peration     | Version:  2206                                  |
|   \\  /    A nd           | Website:  www.openfoam.com                      |
|    \\/     M anipulation  |                                                 |
\*---------------------------------------------------------------------------*/
Build  : _76d719d1-20220624 OPENFOAM=2206 version=v2206
Arch   : "LSB;label=64;scalar=64"
Exec   : compressibleMultiphaseInterFoam -parallel
Date   : Apr 13 2023
Time   : 15:06:11
Host   : DESKTOP-BTFG136
PID    : 3904
I/O    : uncollated
Case   : /home/noreff/works/OpenFOAM/2206-user/Projects/RTIthermal
nProcs : 6
Hosts  :
(
    (DESKTOP-BTFG136 6)
)
Pstream initialized with:
    floatTransfer      : 0
    nProcsSimpleSum    : 0
    commsType          : nonBlocking
    polling iterations : 0
trapFpe: Floating point exception trapping enabled (FOAM_SIGFPE).
fileModificationChecking : Monitoring run-time modified files using timeStampMaster (fileModificationSkew 5, maxFileModificationPolls 20)
allowSystemOperations : Allowing user-supplied system call operations

// * * * * * * * * * * * * * * * * * * * * * * * * * * * * * * * * * * * * * //
Create time

Create mesh for time = 0


PIMPLE: Operating solver in PISO mode

Reading field p_rgh

Reading field U

Reading/calculating face flux field phi

Constructing multiphaseMixtureThermo

Selecting thermodynamics package 
{
    type            heRhoThermo;
    mixture         pureMixture;
    transport       const;
    thermo          hConst;
    equationOfState rhoConst;
    specie          specie;
    energy          sensibleInternalEnergy;
}

Selecting thermodynamics package 
{
    type            heRhoThermo;
    mixture         pureMixture;
    transport       const;
    thermo          hConst;
    equationOfState perfectFluid;
    specie          specie;
    energy          sensibleInternalEnergy;
}


Reading g

Reading hRef
Calculating field g.h

Selecting turbulence model type LES
Selecting LES turbulence model Smagorinsky
Selecting LES delta type cubeRootVol
--> FOAM Warning : 
    From void Foam::LESModels::cubeRootVolDelta::calcDelta()
    in file LES/LESdeltas/cubeRootVolDelta/cubeRootVolDelta.C at line 58
    Case is 2D, LES is not strictly applicable

SmagorinskyCoeffs
{
    Ce              1.048;
    Ck              0.094;
}

Creating field kinetic energy K

Courant Number mean: 0 max: 0

Starting time loop

Courant Number mean: 0 max: 0
Interface Courant Number mean: 0 max: 0
deltaT = 0.00011976
Time = 0.00011976

PIMPLE: iteration 1
MULES: Solving for alpha.denseFluid
denseFluid volume fraction, min, max = 0.5 0 1
MULES: Solving for alpha.lightFluid
lightFluid volume fraction, min, max = 0.5 0 1
Phase-sum volume fraction, min, max = 1 1 1
MULES: Solving for alpha.denseFluid
denseFluid volume fraction, min, max = 0.5 0 1
MULES: Solving for alpha.lightFluid
lightFluid volume fraction, min, max = 0.5 0 1
Phase-sum volume fraction, min, max = 1 1 1
MULES: Solving for alpha.denseFluid
denseFluid volume fraction, min, max = 0.5 0 1
MULES: Solving for alpha.lightFluid
lightFluid volume fraction, min, max = 0.5 0 1
Phase-sum volume fraction, min, max = 1 1 1
MULES: Solving for alpha.denseFluid
denseFluid volume fraction, min, max = 0.5 0 1
MULES: Solving for alpha.lightFluid
lightFluid volume fraction, min, max = 0.5 0 1
Phase-sum volume fraction, min, max = 1 1 1
diagonal:  Solving for rho, Initial residual = 0, Final residual = 0, No Iterations 0
smoothSolver:  Solving for Ux, Initial residual = 1, Final residual = 8.32621e-10, No Iterations 6
smoothSolver:  Solving for Uy, Initial residual = 1, Final residual = 7.22904e-09, No Iterations 5
smoothSolver:  Solving for T, Initial residual = 1.04886e-14, Final residual = 1.04886e-14, No Iterations 0
DICPCG:  Solving for p_rgh, Initial residual = 1, Final residual = 9.85568e-09, No Iterations 880
max(U) 0.0166486
min(p_rgh) 0.981
DICPCG:  Solving for p_rgh, Initial residual = 0.0659749, Final residual = 9.91956e-09, No Iterations 830
max(U) 0.0156412
min(p_rgh) 294.275
ExecutionTime = 0.9 s  ClockTime = 1 s

Courant Number mean: 3.63933e-05 max: 0.0113518
Interface Courant Number mean: 0 max: 0
deltaT = 0.00014406
Time = 0.00026382

PIMPLE: iteration 1
MULES: Solving for alpha.denseFluid
denseFluid volume fraction, min, max = 0.5 0 1
MULES: Solving for alpha.lightFluid
lightFluid volume fraction, min, max = 0.5 0 1
Phase-sum volume fraction, min, max = 1 1 1
MULES: Solving for alpha.denseFluid
denseFluid volume fraction, min, max = 0.5 -1.56373e-20 1
MULES: Solving for alpha.lightFluid
lightFluid volume fraction, min, max = 0.5 -7.27316e-22 1
Phase-sum volume fraction, min, max = 1 1 1
MULES: Solving for alpha.denseFluid
denseFluid volume fraction, min, max = 0.5 -6.18218e-21 1
MULES: Solving for alpha.lightFluid
lightFluid volume fraction, min, max = 0.5 -3.00586e-20 1
Phase-sum volume fraction, min, max = 1 1 1
MULES: Solving for alpha.denseFluid
denseFluid volume fraction, min, max = 0.5 -3.50166e-19 1
MULES: Solving for alpha.lightFluid
lightFluid volume fraction, min, max = 0.5 -4.24335e-19 1
Phase-sum volume fraction, min, max = 1 1 1
diagonal:  Solving for rho, Initial residual = 0, Final residual = 0, No Iterations 0
smoothSolver:  Solving for Ux, Initial residual = 0.0846194, Final residual = 6.15199e-10, No Iterations 5
smoothSolver:  Solving for Uy, Initial residual = 0.939346, Final residual = 2.17005e-09, No Iterations 6
smoothSolver:  Solving for T, Initial residual = 9.08325e-06, Final residual = 1.32878e-10, No Iterations 1
DICPCG:  Solving for p_rgh, Initial residual = 0.0710056, Final residual = 9.93125e-09, No Iterations 853
max(U) 0.02809
min(p_rgh) 439109
DICPCG:  Solving for p_rgh, Initial residual = 0.00379902, Final residual = 9.61941e-09, No Iterations 833
max(U) 0.0286952
min(p_rgh) 294.449
ExecutionTime = 1.54 s  ClockTime = 2 s

Courant Number mean: 8.63066e-05 max: 0.0236768
Interface Courant Number mean: 6.87059e-06 max: 0.0236768
deltaT = 0.000173124
Time = 0.000436945

PIMPLE: iteration 1
MULES: Solving for alpha.denseFluid
denseFluid volume fraction, min, max = 0.5 -4.60698e-15 1
MULES: Solving for alpha.lightFluid
lightFluid volume fraction, min, max = 0.5 -6.14164e-13 1
Phase-sum volume fraction, min, max = 1 1 1
MULES: Solving for alpha.denseFluid
denseFluid volume fraction, min, max = 0.5 -8.32615e-18 1
MULES: Solving for alpha.lightFluid
lightFluid volume fraction, min, max = 0.5 -4.82984e-18 1
Phase-sum volume fraction, min, max = 1 1 1
MULES: Solving for alpha.denseFluid
denseFluid volume fraction, min, max = 0.5 -6.53855e-18 1
MULES: Solving for alpha.lightFluid
lightFluid volume fraction, min, max = 0.5 -5.24597e-18 1
Phase-sum volume fraction, min, max = 1 1 1
MULES: Solving for alpha.denseFluid
denseFluid volume fraction, min, max = 0.5 -6.53202e-18 1
MULES: Solving for alpha.lightFluid
lightFluid volume fraction, min, max = 0.5 -4.78218e-18 1
Phase-sum volume fraction, min, max = 1 1 1
diagonal:  Solving for rho, Initial residual = 0, Final residual = 0, No Iterations 0
smoothSolver:  Solving for Ux, Initial residual = 0.084645, Final residual = 1.52485e-09, No Iterations 5
smoothSolver:  Solving for Uy, Initial residual = 0.898637, Final residual = 5.86008e-09, No Iterations 6
smoothSolver:  Solving for T, Initial residual = 1.98915e-05, Final residual = 1.12207e-09, No Iterations 1
DICPCG:  Solving for p_rgh, Initial residual = 0.0693752, Final residual = 9.44972e-09, No Iterations 860
max(U) 0.0375628
min(p_rgh) 1.17088e+06
DICPCG:  Solving for p_rgh, Initial residual = 0.00433039, Final residual = 9.45005e-09, No Iterations 843
max(U) 0.0384254
min(p_rgh) 294.799
ExecutionTime = 2.2 s  ClockTime = 3 s

Courant Number mean: 0.000150601 max: 0.0366796
Interface Courant Number mean: 3.12655e-05 max: 0.0366796
deltaT = 0.000208118
Time = 0.000645062

PIMPLE: iteration 1
MULES: Solving for alpha.denseFluid
denseFluid volume fraction, min, max = 0.5 -1.16842e-14 1
MULES: Solving for alpha.lightFluid
lightFluid volume fraction, min, max = 0.5 -1.04187e-14 1
Phase-sum volume fraction, min, max = 1 1 1
MULES: Solving for alpha.denseFluid
denseFluid volume fraction, min, max = 0.5 -2.3695e-17 1
MULES: Solving for alpha.lightFluid
lightFluid volume fraction, min, max = 0.5 -3.94203e-16 1
Phase-sum volume fraction, min, max = 1 1 1
MULES: Solving for alpha.denseFluid
denseFluid volume fraction, min, max = 0.5 -2.36025e-17 1
MULES: Solving for alpha.lightFluid
lightFluid volume fraction, min, max = 0.5 -1.46102e-16 1
Phase-sum volume fraction, min, max = 1 1 1
MULES: Solving for alpha.denseFluid
denseFluid volume fraction, min, max = 0.5 -2.35269e-17 1
MULES: Solving for alpha.lightFluid
lightFluid volume fraction, min, max = 0.5 -2.29262e-16 1
Phase-sum volume fraction, min, max = 1 1 1
diagonal:  Solving for rho, Initial residual = 0, Final residual = 0, No Iterations 0
smoothSolver:  Solving for Ux, Initial residual = 0.0927516, Final residual = 4.27102e-09, No Iterations 5
smoothSolver:  Solving for Uy, Initial residual = 0.874693, Final residual = 1.56867e-09, No Iterations 7
smoothSolver:  Solving for T, Initial residual = 3.22479e-05, Final residual = 4.34583e-09, No Iterations 1
DICPCG:  Solving for p_rgh, Initial residual = 0.0649649, Final residual = 9.87447e-09, No Iterations 867
max(U) 0.0433433
min(p_rgh) 2.19997e+06
DICPCG:  Solving for p_rgh, Initial residual = 0.00493745, Final residual = 9.42824e-09, No Iterations 854
max(U) 0.0442144
min(p_rgh) 295.415
ExecutionTime = 2.85 s  ClockTime = 3 s

Courant Number mean: 0.000229402 max: 0.0509757
Interface Courant Number mean: 4.53941e-05 max: 0.0509757
deltaT = 0.00024814
Time = 0.000893202

PIMPLE: iteration 1
MULES: Solving for alpha.denseFluid
denseFluid volume fraction, min, max = 0.5 -3.53091e-14 1
MULES: Solving for alpha.lightFluid
lightFluid volume fraction, min, max = 0.5 -1.76403e-14 1
Phase-sum volume fraction, min, max = 1 1 1
MULES: Solving for alpha.denseFluid
denseFluid volume fraction, min, max = 0.5 -6.39545e-17 1
MULES: Solving for alpha.lightFluid
lightFluid volume fraction, min, max = 0.5 -5.29523e-17 1
Phase-sum volume fraction, min, max = 1 1 1
MULES: Solving for alpha.denseFluid
denseFluid volume fraction, min, max = 0.5 -1.25243e-16 1
MULES: Solving for alpha.lightFluid
lightFluid volume fraction, min, max = 0.5 -6.61894e-17 1
Phase-sum volume fraction, min, max = 1 1 1
MULES: Solving for alpha.denseFluid
denseFluid volume fraction, min, max = 0.5 -1.24693e-16 1
MULES: Solving for alpha.lightFluid
lightFluid volume fraction, min, max = 0.5 -6.57493e-17 1
Phase-sum volume fraction, min, max = 1 1 1
diagonal:  Solving for rho, Initial residual = 0, Final residual = 0, No Iterations 0
smoothSolver:  Solving for Ux, Initial residual = 0.102626, Final residual = 1.11414e-09, No Iterations 6
smoothSolver:  Solving for Uy, Initial residual = 0.863999, Final residual = 4.69998e-09, No Iterations 7
smoothSolver:  Solving for T, Initial residual = 4.47081e-05, Final residual = 6.16687e-12, No Iterations 2
DICPCG:  Solving for p_rgh, Initial residual = 0.0650892, Final residual = 9.99279e-09, No Iterations 871
max(U) 0.0454906
min(p_rgh) 3.28711e+06
DICPCG:  Solving for p_rgh, Initial residual = 0.00564824, Final residual = 9.31435e-09, No Iterations 862
max(U) 0.0459208
min(p_rgh) 296.072
ExecutionTime = 3.51 s  ClockTime = 4 s

Courant Number mean: 0.000317382 max: 0.0661343
Interface Courant Number mean: 5.84878e-05 max: 0.0661343
deltaT = 0.000298544
Time = 0.00119175

PIMPLE: iteration 1
MULES: Solving for alpha.denseFluid
denseFluid volume fraction, min, max = 0.5 -6.15843e-14 1
MULES: Solving for alpha.lightFluid
lightFluid volume fraction, min, max = 0.5 -3.00666e-14 1
Phase-sum volume fraction, min, max = 1 1 1
MULES: Solving for alpha.denseFluid
denseFluid volume fraction, min, max = 0.5 -3.68172e-16 1
MULES: Solving for alpha.lightFluid
lightFluid volume fraction, min, max = 0.5 -6.87205e-16 1
Phase-sum volume fraction, min, max = 1 1 1
MULES: Solving for alpha.denseFluid
denseFluid volume fraction, min, max = 0.5 -3.58702e-16 1
MULES: Solving for alpha.lightFluid
lightFluid volume fraction, min, max = 0.5 -6.8523e-16 1
Phase-sum volume fraction, min, max = 1 1 1
MULES: Solving for alpha.denseFluid
denseFluid volume fraction, min, max = 0.5 -3.42753e-16 1
MULES: Solving for alpha.lightFluid
lightFluid volume fraction, min, max = 0.5 -6.83261e-16 1
Phase-sum volume fraction, min, max = 1 1 1
diagonal:  Solving for rho, Initial residual = 0, Final residual = 0, No Iterations 0
smoothSolver:  Solving for Ux, Initial residual = 0.118077, Final residual = 3.67136e-09, No Iterations 6
smoothSolver:  Solving for Uy, Initial residual = 0.869403, Final residual = 1.9829e-09, No Iterations 8
smoothSolver:  Solving for T, Initial residual = 5.66307e-05, Final residual = 1.64871e-11, No Iterations 2
DICPCG:  Solving for p_rgh, Initial residual = 0.0696859, Final residual = 9.39765e-09, No Iterations 877
max(U) 0.0453885
min(p_rgh) 4.29367e+06
DICPCG:  Solving for p_rgh, Initial residual = 0.00670916, Final residual = 9.17827e-09, No Iterations 869
max(U) 0.0448318
min(p_rgh) 296.905
ExecutionTime = 4.17 s  ClockTime = 5 s

Courant Number mean: 0.000414723 max: 0.0809563
Interface Courant Number mean: 6.86954e-05 max: 0.0809563
deltaT = 0.000354873
Time = 0.00154662

PIMPLE: iteration 1
MULES: Solving for alpha.denseFluid
denseFluid volume fraction, min, max = 0.5 -4.46719e-14 1
MULES: Solving for alpha.lightFluid
lightFluid volume fraction, min, max = 0.5 -5.97076e-14 1
Phase-sum volume fraction, min, max = 1 1 1
MULES: Solving for alpha.denseFluid
denseFluid volume fraction, min, max = 0.5 -4.41853e-16 1
MULES: Solving for alpha.lightFluid
lightFluid volume fraction, min, max = 0.5 -6.71404e-16 1
Phase-sum volume fraction, min, max = 1 1 1
MULES: Solving for alpha.denseFluid
denseFluid volume fraction, min, max = 0.5 -4.98388e-16 1
MULES: Solving for alpha.lightFluid
lightFluid volume fraction, min, max = 0.5 -7.56813e-16 1
Phase-sum volume fraction, min, max = 1 1 1
MULES: Solving for alpha.denseFluid
denseFluid volume fraction, min, max = 0.5 -4.94907e-16 1
MULES: Solving for alpha.lightFluid
lightFluid volume fraction, min, max = 0.5 -7.50625e-16 1
Phase-sum volume fraction, min, max = 1 1 1
diagonal:  Solving for rho, Initial residual = 0, Final residual = 0, No Iterations 0
smoothSolver:  Solving for Ux, Initial residual = 0.132681, Final residual = 1.42285e-09, No Iterations 7
smoothSolver:  Solving for Uy, Initial residual = 0.885999, Final residual = 6.51323e-09, No Iterations 8
smoothSolver:  Solving for T, Initial residual = 6.48962e-05, Final residual = 3.34199e-11, No Iterations 2
DICPCG:  Solving for p_rgh, Initial residual = 0.0733949, Final residual = 9.64736e-09, No Iterations 881
max(U) 0.045131
min(p_rgh) 4.70374e+06
DICPCG:  Solving for p_rgh, Initial residual = 0.00820873, Final residual = 9.99587e-09, No Iterations 867
max(U) 0.0445555
min(p_rgh) 298.173
ExecutionTime = 4.84 s  ClockTime = 5 s

Courant Number mean: 0.000507936 max: 0.0932713
Interface Courant Number mean: 7.6168e-05 max: 0.0932713
deltaT = 0.000429148
Time = 0.00197577

PIMPLE: iteration 1
MULES: Solving for alpha.denseFluid
denseFluid volume fraction, min, max = 0.5 -1.23618e-13 1
MULES: Solving for alpha.lightFluid
lightFluid volume fraction, min, max = 0.5 -7.77937e-14 1
Phase-sum volume fraction, min, max = 1 1 1
MULES: Solving for alpha.denseFluid
denseFluid volume fraction, min, max = 0.5 -5.19158e-16 1
MULES: Solving for alpha.lightFluid
lightFluid volume fraction, min, max = 0.5 -2.94941e-15 1
Phase-sum volume fraction, min, max = 1 1 1
MULES: Solving for alpha.denseFluid
denseFluid volume fraction, min, max = 0.5 -1.18191e-15 1
MULES: Solving for alpha.lightFluid
lightFluid volume fraction, min, max = 0.5 -2.93801e-15 1
Phase-sum volume fraction, min, max = 1 1 1
MULES: Solving for alpha.denseFluid
denseFluid volume fraction, min, max = 0.5 -1.69198e-15 1
MULES: Solving for alpha.lightFluid
lightFluid volume fraction, min, max = 0.5 -2.92663e-15 1
Phase-sum volume fraction, min, max = 1 1 1
diagonal:  Solving for rho, Initial residual = 0, Final residual = 0, No Iterations 0
smoothSolver:  Solving for Ux, Initial residual = 0.147319, Final residual = 5.02453e-09, No Iterations 7
smoothSolver:  Solving for Uy, Initial residual = 0.910551, Final residual = 4.14071e-09, No Iterations 9
smoothSolver:  Solving for T, Initial residual = 6.90147e-05, Final residual = 6.21127e-11, No Iterations 2
DICPCG:  Solving for p_rgh, Initial residual = 0.0799357, Final residual = 9.86367e-09, No Iterations 888
max(U) 0.0406792
min(p_rgh) 4.54998e+06
DICPCG:  Solving for p_rgh, Initial residual = 0.0102896, Final residual = 9.43107e-09, No Iterations 880
max(U) 0.0401445
min(p_rgh) 299.231
ExecutionTime = 5.51 s  ClockTime = 6 s

Courant Number mean: 0.000611677 max: 0.100582
Interface Courant Number mean: 8.08256e-05 max: 0.100582
deltaT = 0.000514978
Time = 0.00249075

PIMPLE: iteration 1
MULES: Solving for alpha.denseFluid
denseFluid volume fraction, min, max = 0.5 -3.1418e-13 1
MULES: Solving for alpha.lightFluid
lightFluid volume fraction, min, max = 0.5 -2.35642e-13 1
Phase-sum volume fraction, min, max = 1 1 1
MULES: Solving for alpha.denseFluid
denseFluid volume fraction, min, max = 0.5 -2.88031e-15 1
MULES: Solving for alpha.lightFluid
lightFluid volume fraction, min, max = 0.5 -1.73155e-15 1
Phase-sum volume fraction, min, max = 1 1 1
MULES: Solving for alpha.denseFluid
denseFluid volume fraction, min, max = 0.5 -4.24547e-15 1
MULES: Solving for alpha.lightFluid
lightFluid volume fraction, min, max = 0.5 -7.1319e-16 1
Phase-sum volume fraction, min, max = 1 1 1
MULES: Solving for alpha.denseFluid
denseFluid volume fraction, min, max = 0.5 -4.19483e-15 1
MULES: Solving for alpha.lightFluid
lightFluid volume fraction, min, max = 0.5 -1.07022e-15 1
Phase-sum volume fraction, min, max = 1 1 1
diagonal:  Solving for rho, Initial residual = 0, Final residual = 0, No Iterations 0
smoothSolver:  Solving for Ux, Initial residual = 0.148965, Final residual = 2.76163e-09, No Iterations 8
smoothSolver:  Solving for Uy, Initial residual = 0.934796, Final residual = 3.12681e-09, No Iterations 10
smoothSolver:  Solving for T, Initial residual = 6.50968e-05, Final residual = 1.12096e-10, No Iterations 2
DICPCG:  Solving for p_rgh, Initial residual = 0.0801262, Final residual = 9.90949e-09, No Iterations 894
max(U) 0.0362002
min(p_rgh) 3.14975e+06
DICPCG:  Solving for p_rgh, Initial residual = 0.0122901, Final residual = 9.79579e-09, No Iterations 885
max(U) 0.0315294
min(p_rgh) 299.752
ExecutionTime = 6.19 s  ClockTime = 7 s

Courant Number mean: 0.000730058 max: 0.094141
Interface Courant Number mean: 7.189e-05 max: 0.094141
deltaT = 0.000625331
Time = 0.00311608

PIMPLE: iteration 1
MULES: Solving for alpha.denseFluid
denseFluid volume fraction, min, max = 0.5 -4.99185e-13 1
MULES: Solving for alpha.lightFluid
lightFluid volume fraction, min, max = 0.5 -2.95057e-13 1
Phase-sum volume fraction, min, max = 1 1 1
MULES: Solving for alpha.denseFluid
denseFluid volume fraction, min, max = 0.5 -8.24602e-16 1
MULES: Solving for alpha.lightFluid
lightFluid volume fraction, min, max = 0.5 -3.01835e-15 1
Phase-sum volume fraction, min, max = 1 1 1
MULES: Solving for alpha.denseFluid
denseFluid volume fraction, min, max = 0.5 -7.75751e-16 1
MULES: Solving for alpha.lightFluid
lightFluid volume fraction, min, max = 0.5 -1.12214e-15 1
Phase-sum volume fraction, min, max = 1 1 1
MULES: Solving for alpha.denseFluid
denseFluid volume fraction, min, max = 0.5 -7.15939e-16 1
MULES: Solving for alpha.lightFluid
lightFluid volume fraction, min, max = 0.5 -1.72818e-15 1
Phase-sum volume fraction, min, max = 1 1 1
diagonal:  Solving for rho, Initial residual = 0, Final residual = 0, No Iterations 0
smoothSolver:  Solving for Ux, Initial residual = 0.131766, Final residual = 8.61294e-09, No Iterations 8
smoothSolver:  Solving for Uy, Initial residual = 0.95271, Final residual = 3.13182e-09, No Iterations 11
smoothSolver:  Solving for T, Initial residual = 5.29407e-05, Final residual = 2.22138e-10, No Iterations 2
DICPCG:  Solving for p_rgh, Initial residual = 0.0729167, Final residual = 9.50073e-09, No Iterations 904
max(U) 0.0313627
min(p_rgh) 422445
DICPCG:  Solving for p_rgh, Initial residual = 0.0138604, Final residual = 9.41256e-09, No Iterations 892
max(U) 0.0227723
min(p_rgh) 299.803
ExecutionTime = 6.87 s  ClockTime = 7 s

Courant Number mean: 0.000931857 max: 0.0891408
Interface Courant Number mean: 6.23329e-05 max: 0.0891408
deltaT = 0.000734084
Time = 0.00385016

PIMPLE: iteration 1
MULES: Solving for alpha.denseFluid
denseFluid volume fraction, min, max = 0.5 -2.83015e-13 1
MULES: Solving for alpha.lightFluid
lightFluid volume fraction, min, max = 0.5 -5.1061e-16 1
Phase-sum volume fraction, min, max = 1 1 1
MULES: Solving for alpha.denseFluid
denseFluid volume fraction, min, max = 0.5 -2.91932e-15 1
MULES: Solving for alpha.lightFluid
lightFluid volume fraction, min, max = 0.5 -2.30108e-14 1
Phase-sum volume fraction, min, max = 1 1 1
MULES: Solving for alpha.denseFluid
denseFluid volume fraction, min, max = 0.5 -7.3726e-16 1
MULES: Solving for alpha.lightFluid
lightFluid volume fraction, min, max = 0.5 -1.44805e-16 1
Phase-sum volume fraction, min, max = 1 1 1
MULES: Solving for alpha.denseFluid
denseFluid volume fraction, min, max = 0.5 -8.84143e-16 1
MULES: Solving for alpha.lightFluid
lightFluid volume fraction, min, max = 0.5 -1.44805e-16 1
Phase-sum volume fraction, min, max = 1 1 1
diagonal:  Solving for rho, Initial residual = 0, Final residual = 0, No Iterations 0
smoothSolver:  Solving for Ux, Initial residual = 0.105024, Final residual = 3.81478e-09, No Iterations 9
smoothSolver:  Solving for Uy, Initial residual = 0.959563, Final residual = 2.80387e-09, No Iterations 12
smoothSolver:  Solving for T, Initial residual = 4.00933e-05, Final residual = 3.60411e-10, No Iterations 2
DICPCG:  Solving for p_rgh, Initial residual = 0.0630506, Final residual = 9.98024e-09, No Iterations 978
max(U) 0.027404
min(p_rgh) 0.981
DICPCG:  Solving for p_rgh, Initial residual = 0.0348412, Final residual = 9.97851e-09, No Iterations 887
max(U) 0.0179716
min(p_rgh) 4.45288e+06
ExecutionTime = 7.57 s  ClockTime = 8 s

Courant Number mean: 0.00122812 max: 0.0787068
Interface Courant Number mean: 6.46749e-05 max: 0.0787068
deltaT = 0.000897213
Time = 0.00474737

PIMPLE: iteration 1
MULES: Solving for alpha.denseFluid
denseFluid volume fraction, min, max = 0.5 -1.72357e-13 1
MULES: Solving for alpha.lightFluid
lightFluid volume fraction, min, max = 0.5 -2.83353e-11 1
Phase-sum volume fraction, min, max = 1 1 1
MULES: Solving for alpha.denseFluid
denseFluid volume fraction, min, max = 0.5 -1.25953e-14 1
MULES: Solving for alpha.lightFluid
lightFluid volume fraction, min, max = 0.5 -5.21249e-12 1
Phase-sum volume fraction, min, max = 1 1 1
MULES: Solving for alpha.denseFluid
denseFluid volume fraction, min, max = 0.5 -1.13724e-14 1
MULES: Solving for alpha.lightFluid
lightFluid volume fraction, min, max = 0.5 -5.04256e-12 1
Phase-sum volume fraction, min, max = 1 1 1
MULES: Solving for alpha.denseFluid
denseFluid volume fraction, min, max = 0.5 -2.13095e-14 1
MULES: Solving for alpha.lightFluid
lightFluid volume fraction, min, max = 0.5 -4.87431e-12 1
Phase-sum volume fraction, min, max = 1 1 1
diagonal:  Solving for rho, Initial residual = 0, Final residual = 0, No Iterations 0
smoothSolver:  Solving for Ux, Initial residual = 0.317125, Final residual = 3.09421e-09, No Iterations 12
smoothSolver:  Solving for Uy, Initial residual = 0.292804, Final residual = 4.05551e-09, No Iterations 11
smoothSolver:  Solving for T, Initial residual = 4.13369e-05, Final residual = 4.99906e-10, No Iterations 2
DICPCG:  Solving for p_rgh, Initial residual = 0.0434491, Final residual = 9.64307e-09, No Iterations 882
max(U) 0.0245738
min(p_rgh) 0.981
DICPCG:  Solving for p_rgh, Initial residual = 0.0322657, Final residual = 9.28114e-09, No Iterations 893
max(U) 0.0196842
min(p_rgh) 1.09441e+07
ExecutionTime = 8.25 s  ClockTime = 9 s

Courant Number mean: 0.00169709 max: 0.0977905
Interface Courant Number mean: 8.25735e-05 max: 0.0945219
deltaT = 0.00108947
Time = 0.00583685

PIMPLE: iteration 1
MULES: Solving for alpha.denseFluid
denseFluid volume fraction, min, max = 0.5 -5.3488e-13 1
MULES: Solving for alpha.lightFluid
lightFluid volume fraction, min, max = 0.5 -2.41954e-11 1
Phase-sum volume fraction, min, max = 1 1 1
MULES: Solving for alpha.denseFluid
denseFluid volume fraction, min, max = 0.5 -1.24234e-14 1
MULES: Solving for alpha.lightFluid
lightFluid volume fraction, min, max = 0.5 -4.54757e-12 1
Phase-sum volume fraction, min, max = 1 1 1
MULES: Solving for alpha.denseFluid
denseFluid volume fraction, min, max = 0.5 -7.65981e-15 1
MULES: Solving for alpha.lightFluid
lightFluid volume fraction, min, max = 0.5 -4.46769e-12 1
Phase-sum volume fraction, min, max = 1 1 1
MULES: Solving for alpha.denseFluid
denseFluid volume fraction, min, max = 0.5 -7.56173e-15 1
MULES: Solving for alpha.lightFluid
lightFluid volume fraction, min, max = 0.5 -4.38898e-12 1
Phase-sum volume fraction, min, max = 1 1 1
diagonal:  Solving for rho, Initial residual = 0, Final residual = 0, No Iterations 0
smoothSolver:  Solving for Ux, Initial residual = 0.312321, Final residual = 4.14862e-09, No Iterations 13
smoothSolver:  Solving for Uy, Initial residual = 0.292571, Final residual = 5.23193e-09, No Iterations 12
smoothSolver:  Solving for T, Initial residual = 4.7382e-05, Final residual = 4.13511e-10, No Iterations 2
DICPCG:  Solving for p_rgh, Initial residual = 0.049504, Final residual = 9.6046e-09, No Iterations 885
max(U) 0.025641
min(p_rgh) 0.981
DICPCG:  Solving for p_rgh, Initial residual = 0.0292136, Final residual = 9.8042e-09, No Iterations 892
max(U) 0.0181121
min(p_rgh) 1.03824e+07
ExecutionTime = 8.94 s  ClockTime = 9 s

Courant Number mean: 0.00233404 max: 0.114721
Interface Courant Number mean: 0.000103609 max: 0.114721
deltaT = 0.00128756
Time = 0.00712441

PIMPLE: iteration 1
MULES: Solving for alpha.denseFluid
denseFluid volume fraction, min, max = 0.5 -1.10333e-11 1
MULES: Solving for alpha.lightFluid
lightFluid volume fraction, min, max = 0.5 -4.29065e-12 1
Phase-sum volume fraction, min, max = 1 1 1
MULES: Solving for alpha.denseFluid
denseFluid volume fraction, min, max = 0.5 -1.15937e-13 1
MULES: Solving for alpha.lightFluid
lightFluid volume fraction, min, max = 0.5 -4.19427e-12 1
Phase-sum volume fraction, min, max = 1 1 1
MULES: Solving for alpha.denseFluid
denseFluid volume fraction, min, max = 0.5 -1.12481e-13 1
MULES: Solving for alpha.lightFluid
lightFluid volume fraction, min, max = 0.5 -4.0998e-12 1
Phase-sum volume fraction, min, max = 1 1 1
MULES: Solving for alpha.denseFluid
denseFluid volume fraction, min, max = 0.5 -1.05278e-12 1
MULES: Solving for alpha.lightFluid
lightFluid volume fraction, min, max = 0.5 -4.00722e-12 1
Phase-sum volume fraction, min, max = 1 1 1
diagonal:  Solving for rho, Initial residual = 0, Final residual = 0, No Iterations 0
smoothSolver:  Solving for Ux, Initial residual = 0.313085, Final residual = 5.39248e-09, No Iterations 14
smoothSolver:  Solving for Uy, Initial residual = 0.296125, Final residual = 6.35391e-09, No Iterations 13
smoothSolver:  Solving for T, Initial residual = 4.60237e-05, Final residual = 1.84326e-10, No Iterations 2
DICPCG:  Solving for p_rgh, Initial residual = 0.0457328, Final residual = 9.04889e-09, No Iterations 887
max(U) 0.0301896
min(p_rgh) 0.981
DICPCG:  Solving for p_rgh, Initial residual = 0.0265686, Final residual = 9.8496e-09, No Iterations 896
max(U) 0.016453
min(p_rgh) 4.98302e+06
ExecutionTime = 9.61 s  ClockTime = 10 s

Courant Number mean: 0.00314325 max: 0.140419
Interface Courant Number mean: 0.000124834 max: 0.140419
deltaT = 0.00160945
Time = 0.00873385

PIMPLE: iteration 1
MULES: Solving for alpha.denseFluid
denseFluid volume fraction, min, max = 0.5 -6.6605e-13 1
MULES: Solving for alpha.lightFluid
lightFluid volume fraction, min, max = 0.5 -3.89623e-12 1
Phase-sum volume fraction, min, max = 1 1 1
MULES: Solving for alpha.denseFluid
denseFluid volume fraction, min, max = 0.5 -1.91383e-13 1
MULES: Solving for alpha.lightFluid
lightFluid volume fraction, min, max = 0.5 -2.09551e-13 1
Phase-sum volume fraction, min, max = 1 1 1
MULES: Solving for alpha.denseFluid
denseFluid volume fraction, min, max = 0.5 -1.90779e-13 1
MULES: Solving for alpha.lightFluid
lightFluid volume fraction, min, max = 0.5 -1.76137e-14 1
Phase-sum volume fraction, min, max = 1 1 1
MULES: Solving for alpha.denseFluid
denseFluid volume fraction, min, max = 0.5 -1.90177e-13 1
MULES: Solving for alpha.lightFluid
lightFluid volume fraction, min, max = 0.5 -1.66737e-14 1
Phase-sum volume fraction, min, max = 1 1 1
diagonal:  Solving for rho, Initial residual = 0, Final residual = 0, No Iterations 0
smoothSolver:  Solving for Ux, Initial residual = 0.367595, Final residual = 5.06011e-09, No Iterations 16
smoothSolver:  Solving for Uy, Initial residual = 0.334008, Final residual = 5.10065e-09, No Iterations 15
smoothSolver:  Solving for T, Initial residual = 4.84893e-05, Final residual = 1.57259e-10, No Iterations 2
DICPCG:  Solving for p_rgh, Initial residual = 0.0463257, Final residual = 9.82966e-09, No Iterations 892
max(U) 0.0388722
min(p_rgh) 1.64986e+06
DICPCG:  Solving for p_rgh, Initial residual = 0.0122832, Final residual = 9.11339e-09, No Iterations 887
max(U) 0.015843
min(p_rgh) 550.425
ExecutionTime = 10.29 s  ClockTime = 11 s

Courant Number mean: 0.00457169 max: 0.166997
Interface Courant Number mean: 0.000154457 max: 0.166997
deltaT = 0.00187769
Time = 0.0106115

PIMPLE: iteration 1
MULES: Solving for alpha.denseFluid
denseFluid volume fraction, min, max = 0.5 -2.26284e-12 1
MULES: Solving for alpha.lightFluid
lightFluid volume fraction, min, max = 0.5 -3.63567e-12 1
Phase-sum volume fraction, min, max = 1 1 1
MULES: Solving for alpha.denseFluid
denseFluid volume fraction, min, max = 0.5 -1.0046e-13 1
MULES: Solving for alpha.lightFluid
lightFluid volume fraction, min, max = 0.5 -3.53934e-14 1
Phase-sum volume fraction, min, max = 1 1 1
MULES: Solving for alpha.denseFluid
denseFluid volume fraction, min, max = 0.5 -6.51617e-14 1
MULES: Solving for alpha.lightFluid
lightFluid volume fraction, min, max = 0.5 -4.44225e-14 1
Phase-sum volume fraction, min, max = 1 1 1
MULES: Solving for alpha.denseFluid
denseFluid volume fraction, min, max = 0.5 -6.42009e-14 1
MULES: Solving for alpha.lightFluid
lightFluid volume fraction, min, max = 0.5 -4.24268e-14 1
Phase-sum volume fraction, min, max = 1 1 1
diagonal:  Solving for rho, Initial residual = 0, Final residual = 0, No Iterations 0
smoothSolver:  Solving for Ux, Initial residual = 0.277111, Final residual = 4.02499e-09, No Iterations 17
smoothSolver:  Solving for Uy, Initial residual = 0.959078, Final residual = 8.30102e-09, No Iterations 18
smoothSolver:  Solving for T, Initial residual = 5.34241e-05, Final residual = 2.05521e-10, No Iterations 2
DICPCG:  Solving for p_rgh, Initial residual = 0.0701371, Final residual = 9.72158e-09, No Iterations 999
max(U) 0.0446474
min(p_rgh) 1.77458e+06
DICPCG:  Solving for p_rgh, Initial residual = 0.0285705, Final residual = 9.94622e-09, No Iterations 941
max(U) 0.0157502
min(p_rgh) 546.253
ExecutionTime = 11.02 s  ClockTime = 12 s

Courant Number mean: 0.00636984 max: 0.162923
Interface Courant Number mean: 0.000178773 max: 0.160575
deltaT = 0.00234711
Time = 0.0129587

PIMPLE: iteration 1
MULES: Solving for alpha.denseFluid
denseFluid volume fraction, min, max = 0.5 -1.33577e-12 1
MULES: Solving for alpha.lightFluid
lightFluid volume fraction, min, max = 0.5 -2.27179e-11 1
Phase-sum volume fraction, min, max = 1 1 1
MULES: Solving for alpha.denseFluid
denseFluid volume fraction, min, max = 0.5 -4.3667e-13 1
MULES: Solving for alpha.lightFluid
lightFluid volume fraction, min, max = 0.5 -1.50035e-13 1
Phase-sum volume fraction, min, max = 1 1 1
MULES: Solving for alpha.denseFluid
denseFluid volume fraction, min, max = 0.5 -4.19714e-13 1
MULES: Solving for alpha.lightFluid
lightFluid volume fraction, min, max = 0.5 -1.37612e-13 1
Phase-sum volume fraction, min, max = 1 1 1
MULES: Solving for alpha.denseFluid
denseFluid volume fraction, min, max = 0.5 -4.03276e-13 1
MULES: Solving for alpha.lightFluid
lightFluid volume fraction, min, max = 0.5 -1.20347e-13 1
Phase-sum volume fraction, min, max = 1 1 1
diagonal:  Solving for rho, Initial residual = 0, Final residual = 0, No Iterations 0
smoothSolver:  Solving for Ux, Initial residual = 0.334666, Final residual = 4.94483e-09, No Iterations 19
smoothSolver:  Solving for Uy, Initial residual = 0.958297, Final residual = 8.9275e-09, No Iterations 20
smoothSolver:  Solving for T, Initial residual = 6.84275e-05, Final residual = 5.3726e-10, No Iterations 2
DICPCG:  Solving for p_rgh, Initial residual = 0.0846186, Final residual = 3.94481e-08, No Iterations 1000
max(U) 0.0492532
min(p_rgh) 0.980996
DICPCG:  Solving for p_rgh, Initial residual = 0.0263347, Final residual = 9.84877e-09, No Iterations 918
max(U) 0.0152941
min(p_rgh) 1.17592e+08
ExecutionTime = 11.74 s  ClockTime = 12 s

Courant Number mean: 0.00941972 max: 0.225143
Interface Courant Number mean: 0.000211663 max: 0.225143
deltaT = 0.00234711
Time = 0.0153058

PIMPLE: iteration 1
MULES: Solving for alpha.denseFluid
denseFluid volume fraction, min, max = 0.5 -2.38648e-10 1
MULES: Solving for alpha.lightFluid
lightFluid volume fraction, min, max = 0.5 -1.84273e-12 1
Phase-sum volume fraction, min, max = 1 1 1
MULES: Solving for alpha.denseFluid
denseFluid volume fraction, min, max = 0.5 -4.29666e-12 1
MULES: Solving for alpha.lightFluid
lightFluid volume fraction, min, max = 0.5 -3.61267e-12 1
Phase-sum volume fraction, min, max = 1 1 1
MULES: Solving for alpha.denseFluid
denseFluid volume fraction, min, max = 0.5 -3.46931e-13 1
MULES: Solving for alpha.lightFluid
lightFluid volume fraction, min, max = 0.5 -5.40348e-13 1
Phase-sum volume fraction, min, max = 1 1 1
MULES: Solving for alpha.denseFluid
denseFluid volume fraction, min, max = 0.5 -3.24629e-13 1
MULES: Solving for alpha.lightFluid
lightFluid volume fraction, min, max = 0.5 -4.73328e-13 1
Phase-sum volume fraction, min, max = 1 1 1
diagonal:  Solving for rho, Initial residual = 0, Final residual = 0, No Iterations 0
smoothSolver:  Solving for Ux, Initial residual = 0.509647, Final residual = 9.99329e-09, No Iterations 19
smoothSolver:  Solving for Uy, Initial residual = 0.422954, Final residual = 9.91241e-09, No Iterations 18
smoothSolver:  Solving for T, Initial residual = 6.50263e-05, Final residual = 4.00393e-10, No Iterations 2
DICPCG:  Solving for p_rgh, Initial residual = 0.0593719, Final residual = 9.57564e-09, No Iterations 915
max(U) 0.0414237
min(p_rgh) 0.980995
DICPCG:  Solving for p_rgh, Initial residual = 0.0245731, Final residual = 9.67198e-09, No Iterations 916
max(U) 0.014562
min(p_rgh) 1.62661e+08
ExecutionTime = 12.44 s  ClockTime = 13 s

Courant Number mean: 0.0104636 max: 0.193556
Interface Courant Number mean: 0.000223241 max: 0.193556
deltaT = 0.00234711
Time = 0.0176529

PIMPLE: iteration 1
MULES: Solving for alpha.denseFluid
denseFluid volume fraction, min, max = 0.5 -7.32058e-11 1
MULES: Solving for alpha.lightFluid
lightFluid volume fraction, min, max = 0.5 -2.42473e-11 1
Phase-sum volume fraction, min, max = 1 1 1
MULES: Solving for alpha.denseFluid
denseFluid volume fraction, min, max = 0.5 -3.54752e-12 1
MULES: Solving for alpha.lightFluid
lightFluid volume fraction, min, max = 0.5 -3.49666e-12 1
Phase-sum volume fraction, min, max = 1 1 1
MULES: Solving for alpha.denseFluid
denseFluid volume fraction, min, max = 0.5 -3.47183e-12 1
MULES: Solving for alpha.lightFluid
lightFluid volume fraction, min, max = 0.5 -3.37627e-12 1
Phase-sum volume fraction, min, max = 1 1 1
MULES: Solving for alpha.denseFluid
denseFluid volume fraction, min, max = 0.5 -3.39774e-12 1
MULES: Solving for alpha.lightFluid
lightFluid volume fraction, min, max = 0.5 -3.26e-12 1
Phase-sum volume fraction, min, max = 1 1 1
diagonal:  Solving for rho, Initial residual = 0, Final residual = 0, No Iterations 0
smoothSolver:  Solving for Ux, Initial residual = 0.427193, Final residual = 8.32194e-09, No Iterations 19
smoothSolver:  Solving for Uy, Initial residual = 0.361277, Final residual = 8.77437e-09, No Iterations 18
smoothSolver:  Solving for T, Initial residual = 6.92747e-05, Final residual = 3.65333e-10, No Iterations 2
DICPCG:  Solving for p_rgh, Initial residual = 0.061371, Final residual = 9.60237e-09, No Iterations 917
max(U) 0.0477473
min(p_rgh) 2.09774e+07
DICPCG:  Solving for p_rgh, Initial residual = 0.0197382, Final residual = 9.796e-09, No Iterations 914
max(U) 0.013339
min(p_rgh) 5511.46
ExecutionTime = 13.14 s  ClockTime = 14 s

Courant Number mean: 0.011583 max: 0.212317
Interface Courant Number mean: 0.000220645 max: 0.212317
deltaT = 0.00234711
Time = 0.02

PIMPLE: iteration 1
MULES: Solving for alpha.denseFluid
denseFluid volume fraction, min, max = 0.5 -6.07522e-11 1
MULES: Solving for alpha.lightFluid
lightFluid volume fraction, min, max = 0.5 -2.88225e-11 1
Phase-sum volume fraction, min, max = 1 1 1
MULES: Solving for alpha.denseFluid
denseFluid volume fraction, min, max = 0.5 -3.23275e-12 1
MULES: Solving for alpha.lightFluid
lightFluid volume fraction, min, max = 0.5 -3.06118e-12 1
Phase-sum volume fraction, min, max = 1 1 1
MULES: Solving for alpha.denseFluid
denseFluid volume fraction, min, max = 0.5 -3.13659e-12 1
MULES: Solving for alpha.lightFluid
lightFluid volume fraction, min, max = 0.5 -2.96634e-12 1
Phase-sum volume fraction, min, max = 1 1 1
MULES: Solving for alpha.denseFluid
denseFluid volume fraction, min, max = 0.5 -1.77196e-11 1
MULES: Solving for alpha.lightFluid
lightFluid volume fraction, min, max = 0.5 -2.87442e-12 1
Phase-sum volume fraction, min, max = 1 1 1
diagonal:  Solving for rho, Initial residual = 0, Final residual = 0, No Iterations 0
smoothSolver:  Solving for Ux, Initial residual = 0.399178, Final residual = 7.86397e-09, No Iterations 19
smoothSolver:  Solving for Uy, Initial residual = 0.332435, Final residual = 6.67605e-09, No Iterations 18
smoothSolver:  Solving for T, Initial residual = 7.39337e-05, Final residual = 3.28253e-10, No Iterations 2
DICPCG:  Solving for p_rgh, Initial residual = 0.0645419, Final residual = 9.80617e-09, No Iterations 914
max(U) 0.0469788
min(p_rgh) 4.60983e+07
DICPCG:  Solving for p_rgh, Initial residual = 0.0202493, Final residual = 9.5682e-09, No Iterations 913
max(U) 0.0122869
min(p_rgh) 5534.19
ExecutionTime = 13.95 s  ClockTime = 14 s

yPlus yPlus0 write:
    writing field yPlus
    patch walls y+ : min = 0.00058004, max = 0.21074, average = 0.0304143
    functionObjects::grad grad0 writing field: grad(U)
writeObjects rhofunc write:
    writing object rho
Courant Number mean: 0.0127464 max: 0.186559
Interface Courant Number mean: 0.000232165 max: 0.186559
deltaT = 0.00285714
Time = 0.0228571

PIMPLE: iteration 1
MULES: Solving for alpha.denseFluid
denseFluid volume fraction, min, max = 0.5 -1.07444e-11 1
MULES: Solving for alpha.lightFluid
lightFluid volume fraction, min, max = 0.5 -2.90599e-10 1
Phase-sum volume fraction, min, max = 1 1 1
MULES: Solving for alpha.denseFluid
denseFluid volume fraction, min, max = 0.5 -2.83974e-12 1
MULES: Solving for alpha.lightFluid
lightFluid volume fraction, min, max = 0.5 -2.67015e-12 1
Phase-sum volume fraction, min, max = 1 1 1
MULES: Solving for alpha.denseFluid
denseFluid volume fraction, min, max = 0.5 -2.76679e-12 1
MULES: Solving for alpha.lightFluid
lightFluid volume fraction, min, max = 0.5 -2.57349e-12 1
Phase-sum volume fraction, min, max = 1 1 1
MULES: Solving for alpha.denseFluid
denseFluid volume fraction, min, max = 0.5 -6.92172e-12 1
MULES: Solving for alpha.lightFluid
lightFluid volume fraction, min, max = 0.5 -2.4803e-12 1
Phase-sum volume fraction, min, max = 1 1 1
diagonal:  Solving for rho, Initial residual = 0, Final residual = 0, No Iterations 0
smoothSolver:  Solving for Ux, Initial residual = 0.375054, Final residual = 6.35924e-09, No Iterations 21
smoothSolver:  Solving for Uy, Initial residual = 0.3354, Final residual = 5.19645e-09, No Iterations 20
smoothSolver:  Solving for T, Initial residual = 9.65397e-05, Final residual = 8.63488e-10, No Iterations 2
DICPCG:  Solving for p_rgh, Initial residual = 0.0858519, Final residual = 9.19851e-09, No Iterations 918
max(U) 0.0499226
min(p_rgh) 5.41686e+07
DICPCG:  Solving for p_rgh, Initial residual = 0.0284824, Final residual = 8.91945e-09, No Iterations 951
max(U) 0.0119768
min(p_rgh) 5515.56
ExecutionTime = 14.78 s  ClockTime = 15 s

Courant Number mean: 0.0171362 max: 0.222337
Interface Courant Number mean: 0.000289152 max: 0.222337
deltaT = 0.00342857
Time = 0.0262857

PIMPLE: iteration 1
MULES: Solving for alpha.denseFluid
denseFluid volume fraction, min, max = 0.5 -1.08066e-10 1
MULES: Solving for alpha.lightFluid
lightFluid volume fraction, min, max = 0.5 -3.18849e-11 1
Phase-sum volume fraction, min, max = 1 1 1
MULES: Solving for alpha.denseFluid
denseFluid volume fraction, min, max = 0.5 -2.53069e-12 1
MULES: Solving for alpha.lightFluid
lightFluid volume fraction, min, max = 0.5 -1.34335e-11 1
Phase-sum volume fraction, min, max = 1 1 1
MULES: Solving for alpha.denseFluid
denseFluid volume fraction, min, max = 0.5 -2.44652e-12 1
MULES: Solving for alpha.lightFluid
lightFluid volume fraction, min, max = 0.5 -4.08179e-12 1
Phase-sum volume fraction, min, max = 1 1 1
MULES: Solving for alpha.denseFluid
denseFluid volume fraction, min, max = 0.5 -6.18755e-11 1
MULES: Solving for alpha.lightFluid
lightFluid volume fraction, min, max = 0.5 -3.92891e-12 1
Phase-sum volume fraction, min, max = 1 1 1
diagonal:  Solving for rho, Initial residual = 0, Final residual = 0, No Iterations 0
smoothSolver:  Solving for Ux, Initial residual = 0.422191, Final residual = 6.23101e-09, No Iterations 23
smoothSolver:  Solving for Uy, Initial residual = 0.384457, Final residual = 4.69379e-09, No Iterations 22
smoothSolver:  Solving for T, Initial residual = 0.000123173, Final residual = 2.09921e-09, No Iterations 2
DICPCG:  Solving for p_rgh, Initial residual = 0.111135, Final residual = 9.9162e-09, No Iterations 928
max(U) 0.0496199
min(p_rgh) 3.38189e+07
DICPCG:  Solving for p_rgh, Initial residual = 0.0381261, Final residual = 9.80969e-09, No Iterations 928
max(U) 0.0121994
min(p_rgh) 5485.2
ExecutionTime = 15.48 s  ClockTime = 16 s

Courant Number mean: 0.0227538 max: 0.272645
Interface Courant Number mean: 0.000357658 max: 0.272645
deltaT = 0.00457143
Time = 0.0308571

PIMPLE: iteration 1
MULES: Solving for alpha.denseFluid
denseFluid volume fraction, min, max = 0.5 -9.16926e-11 1
MULES: Solving for alpha.lightFluid
lightFluid volume fraction, min, max = 0.5 -7.83455e-11 1
Phase-sum volume fraction, min, max = 1 1 1
MULES: Solving for alpha.denseFluid
denseFluid volume fraction, min, max = 0.5 -2.15256e-12 1
MULES: Solving for alpha.lightFluid
lightFluid volume fraction, min, max = 0.5 -3.52326e-12 1
Phase-sum volume fraction, min, max = 1 1 1
MULES: Solving for alpha.denseFluid
denseFluid volume fraction, min, max = 0.5 -1.031e-11 1
MULES: Solving for alpha.lightFluid
lightFluid volume fraction, min, max = 0.5 -3.33614e-12 1
Phase-sum volume fraction, min, max = 1 1 1
MULES: Solving for alpha.denseFluid
denseFluid volume fraction, min, max = 0.5 -1.97947e-12 1
MULES: Solving for alpha.lightFluid
lightFluid volume fraction, min, max = 0.5 -4.93587e-12 1
Phase-sum volume fraction, min, max = 1 1 1
diagonal:  Solving for rho, Initial residual = 0, Final residual = 0, No Iterations 0
smoothSolver:  Solving for Ux, Initial residual = 0.488345, Final residual = 6.74512e-09, No Iterations 26
smoothSolver:  Solving for Uy, Initial residual = 0.45923, Final residual = 8.99395e-09, No Iterations 24
smoothSolver:  Solving for T, Initial residual = 0.000172042, Final residual = 1.63518e-10, No Iterations 3
DICPCG:  Solving for p_rgh, Initial residual = 0.156906, Final residual = 9.77829e-09, No Iterations 964
max(U) 0.0605552
min(p_rgh) 1.85949e+08
DICPCG:  Solving for p_rgh, Initial residual = 0.057735, Final residual = 8.97278e-09, No Iterations 964
max(U) 0.0135174
min(p_rgh) 5496.81
ExecutionTime = 16.23 s  ClockTime = 17 s

Courant Number mean: 0.0338007 max: 0.379486
Interface Courant Number mean: 0.000498189 max: 0.379486
deltaT = 0.00457143
Time = 0.0354286

PIMPLE: iteration 1
MULES: Solving for alpha.denseFluid
denseFluid volume fraction, min, max = 0.5 -1.39202e-10 1
MULES: Solving for alpha.lightFluid
lightFluid volume fraction, min, max = 0.5 -6.17352e-11 1
Phase-sum volume fraction, min, max = 1 1 1
MULES: Solving for alpha.denseFluid
denseFluid volume fraction, min, max = 0.5 -8.32576e-12 1
MULES: Solving for alpha.lightFluid
lightFluid volume fraction, min, max = 0.5 -2.72005e-12 1
Phase-sum volume fraction, min, max = 1 1 1
MULES: Solving for alpha.denseFluid
denseFluid volume fraction, min, max = 0.5 -7.33428e-12 1
MULES: Solving for alpha.lightFluid
lightFluid volume fraction, min, max = 0.5 -2.19903e-12 1
Phase-sum volume fraction, min, max = 1 1 1
MULES: Solving for alpha.denseFluid
denseFluid volume fraction, min, max = 0.5 -1.63628e-12 1
MULES: Solving for alpha.lightFluid
lightFluid volume fraction, min, max = 0.5 -3.31315e-12 1
Phase-sum volume fraction, min, max = 1 1 1
diagonal:  Solving for rho, Initial residual = 0, Final residual = 0, No Iterations 0
smoothSolver:  Solving for Ux, Initial residual = 0.551372, Final residual = 7.92395e-09, No Iterations 26
smoothSolver:  Solving for Uy, Initial residual = 0.49308, Final residual = 5.75959e-09, No Iterations 25
smoothSolver:  Solving for T, Initial residual = 0.000183699, Final residual = 2.22146e-10, No Iterations 3
DICPCG:  Solving for p_rgh, Initial residual = 0.163799, Final residual = 9.48402e-09, No Iterations 933
max(U) 0.0558666
min(p_rgh) 3.40016e+07
DICPCG:  Solving for p_rgh, Initial residual = 0.0598846, Final residual = 9.68131e-09, No Iterations 932
max(U) 0.0148629
min(p_rgh) 5657.12
ExecutionTime = 16.95 s  ClockTime = 17 s

Courant Number mean: 0.0373686 max: 0.451516
Interface Courant Number mean: 0.00056863 max: 0.451516
deltaT = 0.00457143
Time = 0.04

PIMPLE: iteration 1
MULES: Solving for alpha.denseFluid
denseFluid volume fraction, min, max = 0.5 -5.39434e-10 1
MULES: Solving for alpha.lightFluid
lightFluid volume fraction, min, max = 0.5 -4.76935e-10 1
Phase-sum volume fraction, min, max = 1 1 1
MULES: Solving for alpha.denseFluid
denseFluid volume fraction, min, max = 0.5 -1.44609e-11 1
MULES: Solving for alpha.lightFluid
lightFluid volume fraction, min, max = 0.5 -1.75155e-11 1
Phase-sum volume fraction, min, max = 1 1 1
MULES: Solving for alpha.denseFluid
denseFluid volume fraction, min, max = 0.5 -2.05745e-11 1
MULES: Solving for alpha.lightFluid
lightFluid volume fraction, min, max = 0.5 -1.87075e-11 1
Phase-sum volume fraction, min, max = 1 1 1
MULES: Solving for alpha.denseFluid
denseFluid volume fraction, min, max = 0.5 -1.93571e-11 1
MULES: Solving for alpha.lightFluid
lightFluid volume fraction, min, max = 0.5 -1.55634e-11 1
Phase-sum volume fraction, min, max = 1 1 1
diagonal:  Solving for rho, Initial residual = 0, Final residual = 0, No Iterations 0
smoothSolver:  Solving for Ux, Initial residual = 0.490845, Final residual = 6.50492e-09, No Iterations 26
smoothSolver:  Solving for Uy, Initial residual = 0.450154, Final residual = 8.80441e-09, No Iterations 24
smoothSolver:  Solving for T, Initial residual = 0.000194362, Final residual = 5.2147e-10, No Iterations 3
DICPCG:  Solving for p_rgh, Initial residual = 0.173229, Final residual = 9.94852e-09, No Iterations 966
max(U) 0.0968063
min(p_rgh) 7.11683e+08
DICPCG:  Solving for p_rgh, Initial residual = 0.0629917, Final residual = 8.98615e-09, No Iterations 966
max(U) 0.0268175
min(p_rgh) 6475.14
ExecutionTime = 17.79 s  ClockTime = 18 s

yPlus yPlus0 write:
    writing field yPlus
    patch walls y+ : min = 0.000218661, max = 0.253415, average = 0.0276257
    functionObjects::grad grad0 writing field: grad(U)
writeObjects rhofunc write:
    writing object rho
Courant Number mean: 0.0410865 max: 0.753427
Interface Courant Number mean: 0.000708949 max: 0.753427
deltaT = 0.005
Time = 0.045

PIMPLE: iteration 1
MULES: Solving for alpha.denseFluid
denseFluid volume fraction, min, max = 0.5 -1.56783e-10 1
MULES: Solving for alpha.lightFluid
lightFluid volume fraction, min, max = 0.5 -9.48056e-09 1
Phase-sum volume fraction, min, max = 1 1 1
MULES: Solving for alpha.denseFluid
denseFluid volume fraction, min, max = 0.5 -1.30562e-09 1
MULES: Solving for alpha.lightFluid
lightFluid volume fraction, min, max = 0.5 -9.11255e-09 1
Phase-sum volume fraction, min, max = 1 1 1
MULES: Solving for alpha.denseFluid
denseFluid volume fraction, min, max = 0.5 -1.56894e-10 1
MULES: Solving for alpha.lightFluid
lightFluid volume fraction, min, max = 0.5 -8.67225e-09 1
Phase-sum volume fraction, min, max = 1 1 1
MULES: Solving for alpha.denseFluid
denseFluid volume fraction, min, max = 0.5 -3.42536e-11 1
MULES: Solving for alpha.lightFluid
lightFluid volume fraction, min, max = 0.5 -2.60701e-11 1
Phase-sum volume fraction, min, max = 1 1 1
diagonal:  Solving for rho, Initial residual = 0, Final residual = 0, No Iterations 0
smoothSolver:  Solving for Ux, Initial residual = 0.622204, Final residual = 6.90595e-09, No Iterations 27
smoothSolver:  Solving for Uy, Initial residual = 0.553404, Final residual = 5.96326e-09, No Iterations 26
smoothSolver:  Solving for T, Initial residual = 0.000255534, Final residual = 6.94384e-10, No Iterations 4
DICPCG:  Solving for p_rgh, Initial residual = 0.261022, Final residual = 9.97802e-09, No Iterations 934
max(U) 0.0725239
min(p_rgh) 0.980969
DICPCG:  Solving for p_rgh, Initial residual = 0.0631603, Final residual = 9.78184e-09, No Iterations 925
max(U) 0.0714943
min(p_rgh) 9.37309e+08
ExecutionTime = 18.62 s  ClockTime = 19 s

Courant Number mean: 0.0510466 max: 2.09724
Interface Courant Number mean: 0.00179134 max: 2.09724
deltaT = 0.001875
Time = 0.046875

PIMPLE: iteration 1
MULES: Solving for alpha.denseFluid
denseFluid volume fraction, min, max = 0.5 -1.68799e-09 1
MULES: Solving for alpha.lightFluid
lightFluid volume fraction, min, max = 0.5 -2.26782e-09 1
Phase-sum volume fraction, min, max = 1 1 1
MULES: Solving for alpha.denseFluid
denseFluid volume fraction, min, max = 0.5 -1.11114e-09 1
MULES: Solving for alpha.lightFluid
lightFluid volume fraction, min, max = 0.5 -8.17819e-10 1
Phase-sum volume fraction, min, max = 1 1 1
MULES: Solving for alpha.denseFluid
denseFluid volume fraction, min, max = 0.5 -4.96057e-10 1
MULES: Solving for alpha.lightFluid
lightFluid volume fraction, min, max = 0.5 -9.32447e-11 1
Phase-sum volume fraction, min, max = 1 1 1
MULES: Solving for alpha.denseFluid
denseFluid volume fraction, min, max = 0.5 -4.25802e-10 1
MULES: Solving for alpha.lightFluid
lightFluid volume fraction, min, max = 0.5 -1.38306e-09 1
Phase-sum volume fraction, min, max = 1 1 1
diagonal:  Solving for rho, Initial residual = 0, Final residual = 0, No Iterations 0
smoothSolver:  Solving for Ux, Initial residual = 0.237059, Final residual = 6.85931e-09, No Iterations 15
smoothSolver:  Solving for Uy, Initial residual = 0.283706, Final residual = 4.5456e-09, No Iterations 16
smoothSolver:  Solving for T, Initial residual = 0.000237718, Final residual = 7.09622e-10, No Iterations 4
DICPCG:  Solving for p_rgh, Initial residual = 0.267909, Final residual = 1.43636e-08, No Iterations 1000
max(U) 0.135204
min(p_rgh) 5.7627e+08
DICPCG:  Solving for p_rgh, Initial residual = 0.0557542, Final residual = 9.64162e-09, No Iterations 904
max(U) 0.0410784
min(p_rgh) 0.981
ExecutionTime = 19.34 s  ClockTime = 20 s

Courant Number mean: 0.0193317 max: 0.455456
Interface Courant Number mean: 0.000363891 max: 0.455456
deltaT = 0.0021875
Time = 0.0490625

PIMPLE: iteration 1
MULES: Solving for alpha.denseFluid
denseFluid volume fraction, min, max = 0.5 -1.77407e-08 1
MULES: Solving for alpha.lightFluid
lightFluid volume fraction, min, max = 0.5 -2.95164e-09 1
Phase-sum volume fraction, min, max = 1 1 1
MULES: Solving for alpha.denseFluid
denseFluid volume fraction, min, max = 0.5 -4.0315e-10 1
MULES: Solving for alpha.lightFluid
lightFluid volume fraction, min, max = 0.5 -2.68999e-09 1
Phase-sum volume fraction, min, max = 1 1 1
MULES: Solving for alpha.denseFluid
denseFluid volume fraction, min, max = 0.5 -3.92279e-10 1
MULES: Solving for alpha.lightFluid
lightFluid volume fraction, min, max = 0.5 -2.43812e-09 1
Phase-sum volume fraction, min, max = 1 1 1
MULES: Solving for alpha.denseFluid
denseFluid volume fraction, min, max = 0.5 -3.81701e-10 1
MULES: Solving for alpha.lightFluid
lightFluid volume fraction, min, max = 0.5 -1.99776e-09 1
Phase-sum volume fraction, min, max = 1 1 1
diagonal:  Solving for rho, Initial residual = 0, Final residual = 0, No Iterations 0
smoothSolver:  Solving for Ux, Initial residual = 0.114392, Final residual = 5.83109e-09, No Iterations 14
smoothSolver:  Solving for Uy, Initial residual = 0.916364, Final residual = 4.85314e-09, No Iterations 20
smoothSolver:  Solving for T, Initial residual = 0.000132237, Final residual = 5.46603e-10, No Iterations 3
DICPCG:  Solving for p_rgh, Initial residual = 0.165946, Final residual = 1.61579e-08, No Iterations 1000
max(U) 0.0266764
min(p_rgh) 0.98099
DICPCG:  Solving for p_rgh, Initial residual = 0.0325819, Final residual = 9.77816e-09, No Iterations 920
max(U) 0.0239873
min(p_rgh) 2.97287e+08
ExecutionTime = 20.07 s  ClockTime = 21 s

Courant Number mean: 0.0239359 max: 0.335059
Interface Courant Number mean: 0.000342134 max: 0.335059
deltaT = 0.00273437
Time = 0.0517969

PIMPLE: iteration 1
MULES: Solving for alpha.denseFluid
denseFluid volume fraction, min, max = 0.5 -6.85888e-10 1
MULES: Solving for alpha.lightFluid
lightFluid volume fraction, min, max = 0.5 -8.96464e-10 1
Phase-sum volume fraction, min, max = 1 1 1
MULES: Solving for alpha.denseFluid
denseFluid volume fraction, min, max = 0.5 -9.71927e-10 1
MULES: Solving for alpha.lightFluid
lightFluid volume fraction, min, max = 0.5 -2.44171e-11 1
Phase-sum volume fraction, min, max = 1 1 1
MULES: Solving for alpha.denseFluid
denseFluid volume fraction, min, max = 0.5 -1.56641e-09 1
MULES: Solving for alpha.lightFluid
lightFluid volume fraction, min, max = 0.5 -1.80409e-11 1
Phase-sum volume fraction, min, max = 1 1 1
MULES: Solving for alpha.denseFluid
denseFluid volume fraction, min, max = 0.5 -9.39485e-10 1
MULES: Solving for alpha.lightFluid
lightFluid volume fraction, min, max = 0.5 -2.21499e-11 1
Phase-sum volume fraction, min, max = 1 1 1
diagonal:  Solving for rho, Initial residual = 0, Final residual = 0, No Iterations 0
smoothSolver:  Solving for Ux, Initial residual = 0.167598, Final residual = 5.2381e-09, No Iterations 19
smoothSolver:  Solving for Uy, Initial residual = 0.215747, Final residual = 5.29732e-09, No Iterations 19
smoothSolver:  Solving for T, Initial residual = 0.00014348, Final residual = 2.03853e-10, No Iterations 3
DICPCG:  Solving for p_rgh, Initial residual = 0.143923, Final residual = 9.67077e-09, No Iterations 911
max(U) 0.0264725
min(p_rgh) 0.980995
DICPCG:  Solving for p_rgh, Initial residual = 0.0344121, Final residual = 1.23177e-08, No Iterations 1000
max(U) 0.0234798
min(p_rgh) 1.47736e+08
ExecutionTime = 20.81 s  ClockTime = 21 s

Courant Number mean: 0.0313354 max: 0.438338
Interface Courant Number mean: 0.000426259 max: 0.438338
deltaT = 0.00273437
Time = 0.0545312

PIMPLE: iteration 1
MULES: Solving for alpha.denseFluid
denseFluid volume fraction, min, max = 0.5 -5.62006e-10 1
MULES: Solving for alpha.lightFluid
lightFluid volume fraction, min, max = 0.5 -2.32971e-09 1
Phase-sum volume fraction, min, max = 1 1 1
MULES: Solving for alpha.denseFluid
denseFluid volume fraction, min, max = 0.5 -3.12041e-10 1
MULES: Solving for alpha.lightFluid
lightFluid volume fraction, min, max = 0.5 -1.77734e-11 1
Phase-sum volume fraction, min, max = 1 1 1
MULES: Solving for alpha.denseFluid
denseFluid volume fraction, min, max = 0.5 -2.95463e-10 1
MULES: Solving for alpha.lightFluid
lightFluid volume fraction, min, max = 0.5 -1.66444e-11 1
Phase-sum volume fraction, min, max = 1 1 1
MULES: Solving for alpha.denseFluid
denseFluid volume fraction, min, max = 0.5 -2.7971e-10 1
MULES: Solving for alpha.lightFluid
lightFluid volume fraction, min, max = 0.5 -1.51418e-11 1
Phase-sum volume fraction, min, max = 1 1 1
diagonal:  Solving for rho, Initial residual = 0, Final residual = 0, No Iterations 0
smoothSolver:  Solving for Ux, Initial residual = 0.142977, Final residual = 8.61711e-09, No Iterations 18
smoothSolver:  Solving for Uy, Initial residual = 0.179817, Final residual = 7.16103e-09, No Iterations 18
smoothSolver:  Solving for T, Initial residual = 0.000154094, Final residual = 2.30405e-10, No Iterations 3
DICPCG:  Solving for p_rgh, Initial residual = 0.153439, Final residual = 9.20292e-09, No Iterations 919
max(U) 0.0309684
min(p_rgh) 3.12206e+07
DICPCG:  Solving for p_rgh, Initial residual = 0.0453742, Final residual = 9.64381e-09, No Iterations 917
max(U) 0.0241578
min(p_rgh) 0.981
ExecutionTime = 21.54 s  ClockTime = 22 s

Courant Number mean: 0.0328598 max: 0.460192
Interface Courant Number mean: 0.000435983 max: 0.460192
deltaT = 0.00273438
Time = 0.0572656

PIMPLE: iteration 1
MULES: Solving for alpha.denseFluid
denseFluid volume fraction, min, max = 0.5 -3.97623e-10 1
MULES: Solving for alpha.lightFluid
lightFluid volume fraction, min, max = 0.5 -1.39647e-10 1
Phase-sum volume fraction, min, max = 1 1 1
MULES: Solving for alpha.denseFluid
denseFluid volume fraction, min, max = 0.5 -2.53894e-10 1
MULES: Solving for alpha.lightFluid
lightFluid volume fraction, min, max = 0.5 -1.28118e-10 1
Phase-sum volume fraction, min, max = 1 1 1
MULES: Solving for alpha.denseFluid
denseFluid volume fraction, min, max = 0.5 -2.41891e-10 1
MULES: Solving for alpha.lightFluid
lightFluid volume fraction, min, max = 0.5 -8.73874e-12 1
Phase-sum volume fraction, min, max = 1 1 1
MULES: Solving for alpha.denseFluid
denseFluid volume fraction, min, max = 0.5 -2.30453e-10 1
MULES: Solving for alpha.lightFluid
lightFluid volume fraction, min, max = 0.5 -1.2571e-11 1
Phase-sum volume fraction, min, max = 1 1 1
diagonal:  Solving for rho, Initial residual = 0, Final residual = 0, No Iterations 0
smoothSolver:  Solving for Ux, Initial residual = 0.0887154, Final residual = 4.8537e-09, No Iterations 16
smoothSolver:  Solving for Uy, Initial residual = 0.916566, Final residual = 5.86415e-09, No Iterations 22
smoothSolver:  Solving for T, Initial residual = 0.000158543, Final residual = 2.24173e-10, No Iterations 3
DICPCG:  Solving for p_rgh, Initial residual = 0.177512, Final residual = 9.91768e-09, No Iterations 980
max(U) 0.0280189
min(p_rgh) 0.980994
DICPCG:  Solving for p_rgh, Initial residual = 0.0338708, Final residual = 9.7315e-09, No Iterations 910
max(U) 0.0235555
min(p_rgh) 1.80969e+08
ExecutionTime = 22.29 s  ClockTime = 23 s

Courant Number mean: 0.0352849 max: 0.436817
Interface Courant Number mean: 0.00048079 max: 0.436817
deltaT = 0.00273437
Time = 0.06

PIMPLE: iteration 1
MULES: Solving for alpha.denseFluid
denseFluid volume fraction, min, max = 0.5 -2.1813e-10 1
MULES: Solving for alpha.lightFluid
lightFluid volume fraction, min, max = 0.5 -1.61162e-11 1
Phase-sum volume fraction, min, max = 1 1 1
MULES: Solving for alpha.denseFluid
denseFluid volume fraction, min, max = 0.5 -2.06464e-10 1
MULES: Solving for alpha.lightFluid
lightFluid volume fraction, min, max = 0.5 -6.53379e-12 1
Phase-sum volume fraction, min, max = 1 1 1
MULES: Solving for alpha.denseFluid
denseFluid volume fraction, min, max = 0.5 -1.95419e-10 1
MULES: Solving for alpha.lightFluid
lightFluid volume fraction, min, max = 0.5 -6.31354e-12 1
Phase-sum volume fraction, min, max = 1 1 1
MULES: Solving for alpha.denseFluid
denseFluid volume fraction, min, max = 0.5 -1.84962e-10 1
MULES: Solving for alpha.lightFluid
lightFluid volume fraction, min, max = 0.5 -2.46237e-11 1
Phase-sum volume fraction, min, max = 1 1 1
diagonal:  Solving for rho, Initial residual = 0, Final residual = 0, No Iterations 0
smoothSolver:  Solving for Ux, Initial residual = 0.119446, Final residual = 6.89471e-09, No Iterations 18
smoothSolver:  Solving for Uy, Initial residual = 0.170523, Final residual = 5.92615e-09, No Iterations 18
smoothSolver:  Solving for T, Initial residual = 0.000164226, Final residual = 2.94766e-10, No Iterations 3
DICPCG:  Solving for p_rgh, Initial residual = 0.152924, Final residual = 9.87411e-09, No Iterations 911
max(U) 0.0376556
min(p_rgh) 2.25406e+07
DICPCG:  Solving for p_rgh, Initial residual = 0.0468142, Final residual = 9.46918e-09, No Iterations 906
max(U) 0.023047
min(p_rgh) 0.981
ExecutionTime = 23.08 s  ClockTime = 24 s

yPlus yPlus0 write:
    writing field yPlus
    patch walls y+ : min = 0.00301251, max = 0.175159, average = 0.0571032
    functionObjects::grad grad0 writing field: grad(U)
writeObjects rhofunc write:
    writing object rho
Courant Number mean: 0.0366455 max: 0.436346
Interface Courant Number mean: 0.000490279 max: 0.436346
deltaT = 0.00333333
Time = 0.0633333

PIMPLE: iteration 1
MULES: Solving for alpha.denseFluid
denseFluid volume fraction, min, max = 0.5 -3.62722e-10 1
MULES: Solving for alpha.lightFluid
lightFluid volume fraction, min, max = 0.5 -1.58277e-10 1
Phase-sum volume fraction, min, max = 1 1 1
MULES: Solving for alpha.denseFluid
denseFluid volume fraction, min, max = 0.5 -1.65637e-10 1
MULES: Solving for alpha.lightFluid
lightFluid volume fraction, min, max = 0.5 -2.37958e-11 1
Phase-sum volume fraction, min, max = 1 1 1
MULES: Solving for alpha.denseFluid
denseFluid volume fraction, min, max = 0.5 -1.56858e-10 1
MULES: Solving for alpha.lightFluid
lightFluid volume fraction, min, max = 0.5 -2.32599e-11 1
Phase-sum volume fraction, min, max = 1 1 1
MULES: Solving for alpha.denseFluid
denseFluid volume fraction, min, max = 0.5 -1.4854e-10 1
MULES: Solving for alpha.lightFluid
lightFluid volume fraction, min, max = 0.5 -2.27352e-11 1
Phase-sum volume fraction, min, max = 1 1 1
diagonal:  Solving for rho, Initial residual = 0, Final residual = 0, No Iterations 0
smoothSolver:  Solving for Ux, Initial residual = 0.109446, Final residual = 5.46938e-09, No Iterations 18
smoothSolver:  Solving for Uy, Initial residual = 0.916746, Final residual = 6.11698e-09, No Iterations 24
smoothSolver:  Solving for T, Initial residual = 0.000207658, Final residual = 1.33606e-09, No Iterations 3
DICPCG:  Solving for p_rgh, Initial residual = 0.214391, Final residual = 9.90198e-09, No Iterations 985
max(U) 0.0376135
min(p_rgh) 0.980984
DICPCG:  Solving for p_rgh, Initial residual = 0.0401167, Final residual = 9.36833e-09, No Iterations 918
max(U) 0.0330274
min(p_rgh) 4.93963e+08
ExecutionTime = 23.94 s  ClockTime = 24 s

Courant Number mean: 0.0482472 max: 0.731504
Interface Courant Number mean: 0.000705458 max: 0.731504
deltaT = 0.00333333
Time = 0.0666667

PIMPLE: iteration 1
MULES: Solving for alpha.denseFluid
denseFluid volume fraction, min, max = 0.5 -1.37833e-10 1
MULES: Solving for alpha.lightFluid
lightFluid volume fraction, min, max = 0.5 -4.09374e-11 1
Phase-sum volume fraction, min, max = 1 1 1
MULES: Solving for alpha.denseFluid
denseFluid volume fraction, min, max = 0.5 -1.27889e-10 1
MULES: Solving for alpha.lightFluid
lightFluid volume fraction, min, max = 0.5 -3.72603e-11 1
Phase-sum volume fraction, min, max = 1 1 1
MULES: Solving for alpha.denseFluid
denseFluid volume fraction, min, max = 0.5 -1.18654e-10 1
MULES: Solving for alpha.lightFluid
lightFluid volume fraction, min, max = 0.5 -5.36328e-11 1
Phase-sum volume fraction, min, max = 1 1 1
MULES: Solving for alpha.denseFluid
denseFluid volume fraction, min, max = 0.5 -1.10078e-10 1
MULES: Solving for alpha.lightFluid
lightFluid volume fraction, min, max = 0.5 -3.04168e-11 1
Phase-sum volume fraction, min, max = 1 1 1
diagonal:  Solving for rho, Initial residual = 0, Final residual = 0, No Iterations 0
smoothSolver:  Solving for Ux, Initial residual = 0.208706, Final residual = 8.58699e-09, No Iterations 20
smoothSolver:  Solving for Uy, Initial residual = 0.25677, Final residual = 8.49103e-09, No Iterations 20
smoothSolver:  Solving for T, Initial residual = 0.0002373, Final residual = 6.61896e-09, No Iterations 3
DICPCG:  Solving for p_rgh, Initial residual = 0.243388, Final residual = 9.53416e-09, No Iterations 915
max(U) 0.0803712
min(p_rgh) 2.98003e+08
DICPCG:  Solving for p_rgh, Initial residual = 0.0710742, Final residual = 9.99503e-09, No Iterations 937
max(U) 0.0520851
min(p_rgh) 0.981
ExecutionTime = 24.67 s  ClockTime = 25 s

Courant Number mean: 0.0505339 max: 1.05292
Interface Courant Number mean: 0.000896772 max: 1.05292
deltaT = 0.00266667
Time = 0.0693333

PIMPLE: iteration 1
MULES: Solving for alpha.denseFluid
denseFluid volume fraction, min, max = 0.5 -1.0887e-09 1
MULES: Solving for alpha.lightFluid
lightFluid volume fraction, min, max = 0.5 -6.46382e-09 1
Phase-sum volume fraction, min, max = 1 1 1
MULES: Solving for alpha.denseFluid
denseFluid volume fraction, min, max = 0.5 -1.03915e-10 1
MULES: Solving for alpha.lightFluid
lightFluid volume fraction, min, max = 0.5 -8.75652e-10 1
Phase-sum volume fraction, min, max = 1 1 1
MULES: Solving for alpha.denseFluid
denseFluid volume fraction, min, max = 0.5 -1.37093e-09 1
MULES: Solving for alpha.lightFluid
lightFluid volume fraction, min, max = 0.5 -3.76983e-10 1
Phase-sum volume fraction, min, max = 1 1 1
MULES: Solving for alpha.denseFluid
denseFluid volume fraction, min, max = 0.5 -9.80935e-11 1
MULES: Solving for alpha.lightFluid
lightFluid volume fraction, min, max = 0.5 -3.60178e-11 1
Phase-sum volume fraction, min, max = 1 1 1
diagonal:  Solving for rho, Initial residual = 0, Final residual = 0, No Iterations 0
smoothSolver:  Solving for Ux, Initial residual = 0.154772, Final residual = 4.51119e-09, No Iterations 16
smoothSolver:  Solving for Uy, Initial residual = 0.894235, Final residual = 4.59252e-09, No Iterations 22
smoothSolver:  Solving for T, Initial residual = 0.00024133, Final residual = 1.71354e-09, No Iterations 4
DICPCG:  Solving for p_rgh, Initial residual = 0.287632, Final residual = 9.40433e-09, No Iterations 966
max(U) 0.105184
min(p_rgh) 0.980975
DICPCG:  Solving for p_rgh, Initial residual = 0.0590071, Final residual = 2.18163e-08, No Iterations 1000
max(U) 0.0525679
min(p_rgh) 7.50116e+08
ExecutionTime = 25.41 s  ClockTime = 26 s

Courant Number mean: 0.0427039 max: 0.875059
Interface Courant Number mean: 0.000724251 max: 0.875059
deltaT = 0.00266667
Time = 0.072

PIMPLE: iteration 1
MULES: Solving for alpha.denseFluid
denseFluid volume fraction, min, max = 0.5 -8.57095e-09 1
MULES: Solving for alpha.lightFluid
lightFluid volume fraction, min, max = 0.5 -3.66574e-10 1
Phase-sum volume fraction, min, max = 1 1 1
MULES: Solving for alpha.denseFluid
denseFluid volume fraction, min, max = 0.5 -7.37963e-09 1
MULES: Solving for alpha.lightFluid
lightFluid volume fraction, min, max = 0.5 -2.32306e-10 1
Phase-sum volume fraction, min, max = 1 1 1
MULES: Solving for alpha.denseFluid
denseFluid volume fraction, min, max = 0.5 -6.31662e-09 1
MULES: Solving for alpha.lightFluid
lightFluid volume fraction, min, max = 0.5 -8.52841e-11 1
Phase-sum volume fraction, min, max = 1 1 1
MULES: Solving for alpha.denseFluid
denseFluid volume fraction, min, max = 0.5 -5.36899e-09 1
MULES: Solving for alpha.lightFluid
lightFluid volume fraction, min, max = 0.5 -8.30759e-11 1
Phase-sum volume fraction, min, max = 1 1 1
diagonal:  Solving for rho, Initial residual = 0, Final residual = 0, No Iterations 0
smoothSolver:  Solving for Ux, Initial residual = 0.377052, Final residual = 5.84861e-09, No Iterations 20
smoothSolver:  Solving for Uy, Initial residual = 0.331837, Final residual = 7.12559e-09, No Iterations 19
smoothSolver:  Solving for T, Initial residual = 0.000254635, Final residual = 2.65596e-09, No Iterations 4
DICPCG:  Solving for p_rgh, Initial residual = 0.28586, Final residual = 9.83376e-09, No Iterations 921
max(U) 0.146009
min(p_rgh) 5.32521e+08
DICPCG:  Solving for p_rgh, Initial residual = 0.0728024, Final residual = 9.57803e-09, No Iterations 913
max(U) 0.0529198
min(p_rgh) 0.981
ExecutionTime = 26.12 s  ClockTime = 27 s

Courant Number mean: 0.0440472 max: 0.917773
Interface Courant Number mean: 0.000775183 max: 0.852217
deltaT = 0.00266667
Time = 0.0746667

PIMPLE: iteration 1
MULES: Solving for alpha.denseFluid
denseFluid volume fraction, min, max = 0.5 -8.63526e-10 1
MULES: Solving for alpha.lightFluid
lightFluid volume fraction, min, max = 0.5 -3.64971e-10 1
Phase-sum volume fraction, min, max = 1 1 1
MULES: Solving for alpha.denseFluid
denseFluid volume fraction, min, max = 0.5 -4.06044e-09 1
MULES: Solving for alpha.lightFluid
lightFluid volume fraction, min, max = 0.5 -8.09044e-10 1
Phase-sum volume fraction, min, max = 1 1 1
MULES: Solving for alpha.denseFluid
denseFluid volume fraction, min, max = 0.5 -1.72805e-10 1
MULES: Solving for alpha.lightFluid
lightFluid volume fraction, min, max = 0.5 -8.14454e-11 1
Phase-sum volume fraction, min, max = 1 1 1
MULES: Solving for alpha.denseFluid
denseFluid volume fraction, min, max = 0.5 -7.26912e-09 1
MULES: Solving for alpha.lightFluid
lightFluid volume fraction, min, max = 0.5 -1.05169e-10 1
Phase-sum volume fraction, min, max = 1 1 1
diagonal:  Solving for rho, Initial residual = 0, Final residual = 0, No Iterations 0
smoothSolver:  Solving for Ux, Initial residual = 0.148806, Final residual = 4.29213e-09, No Iterations 16
smoothSolver:  Solving for Uy, Initial residual = 0.88547, Final residual = 9.89967e-09, No Iterations 21
smoothSolver:  Solving for T, Initial residual = 0.000243645, Final residual = 1.98408e-09, No Iterations 4
DICPCG:  Solving for p_rgh, Initial residual = 0.287145, Final residual = 6.09697e-08, No Iterations 1000
max(U) 0.129199
min(p_rgh) 0.980987
DICPCG:  Solving for p_rgh, Initial residual = 0.0549957, Final residual = 9.317e-09, No Iterations 960
max(U) 0.0499317
min(p_rgh) 4.00451e+08
ExecutionTime = 26.88 s  ClockTime = 27 s

Courant Number mean: 0.0462478 max: 0.796585
Interface Courant Number mean: 0.000725537 max: 0.796585
deltaT = 0.00266667
Time = 0.0773333

PIMPLE: iteration 1
MULES: Solving for alpha.denseFluid
denseFluid volume fraction, min, max = 0.5 -9.56743e-10 1
MULES: Solving for alpha.lightFluid
lightFluid volume fraction, min, max = 0.5 -5.62703e-10 1
Phase-sum volume fraction, min, max = 1 1 1
MULES: Solving for alpha.denseFluid
denseFluid volume fraction, min, max = 0.5 -9.81326e-10 1
MULES: Solving for alpha.lightFluid
lightFluid volume fraction, min, max = 0.5 -9.8419e-11 1
Phase-sum volume fraction, min, max = 1 1 1
MULES: Solving for alpha.denseFluid
denseFluid volume fraction, min, max = 0.5 -5.75284e-11 1
MULES: Solving for alpha.lightFluid
lightFluid volume fraction, min, max = 0.5 -1.27269e-10 1
Phase-sum volume fraction, min, max = 1 1 1
MULES: Solving for alpha.denseFluid
denseFluid volume fraction, min, max = 0.5 -1.45161e-10 1
MULES: Solving for alpha.lightFluid
lightFluid volume fraction, min, max = 0.5 -4.10307e-11 1
Phase-sum volume fraction, min, max = 1 1 1
diagonal:  Solving for rho, Initial residual = 0, Final residual = 0, No Iterations 0
smoothSolver:  Solving for Ux, Initial residual = 0.458919, Final residual = 8.64e-09, No Iterations 20
smoothSolver:  Solving for Uy, Initial residual = 0.356568, Final residual = 7.5962e-09, No Iterations 19
smoothSolver:  Solving for T, Initial residual = 0.000240658, Final residual = 9.29849e-10, No Iterations 4
DICPCG:  Solving for p_rgh, Initial residual = 0.271117, Final residual = 9.62381e-09, No Iterations 926
max(U) 0.144512
min(p_rgh) 0.980998
DICPCG:  Solving for p_rgh, Initial residual = 0.0527957, Final residual = 9.94653e-09, No Iterations 964
max(U) 0.0498823
min(p_rgh) 7.18248e+07
ExecutionTime = 27.63 s  ClockTime = 28 s

Courant Number mean: 0.0477028 max: 0.854661
Interface Courant Number mean: 0.00071704 max: 0.810638
deltaT = 0.00266667
Time = 0.08

PIMPLE: iteration 1
MULES: Solving for alpha.denseFluid
denseFluid volume fraction, min, max = 0.5 -1.11844e-09 1
MULES: Solving for alpha.lightFluid
lightFluid volume fraction, min, max = 0.5 -1.34314e-09 1
Phase-sum volume fraction, min, max = 1 1 1
MULES: Solving for alpha.denseFluid
denseFluid volume fraction, min, max = 0.5 -5.07548e-11 1
MULES: Solving for alpha.lightFluid
lightFluid volume fraction, min, max = 0.5 -1.11726e-09 1
Phase-sum volume fraction, min, max = 1 1 1
MULES: Solving for alpha.denseFluid
denseFluid volume fraction, min, max = 0.5 -4.89623e-11 1
MULES: Solving for alpha.lightFluid
lightFluid volume fraction, min, max = 0.5 -9.11285e-10 1
Phase-sum volume fraction, min, max = 1 1 1
MULES: Solving for alpha.denseFluid
denseFluid volume fraction, min, max = 0.5 -4.72279e-11 1
MULES: Solving for alpha.lightFluid
lightFluid volume fraction, min, max = 0.5 -1.65517e-11 1
Phase-sum volume fraction, min, max = 1 1 1
diagonal:  Solving for rho, Initial residual = 0, Final residual = 0, No Iterations 0
smoothSolver:  Solving for Ux, Initial residual = 0.477531, Final residual = 9.79299e-09, No Iterations 20
smoothSolver:  Solving for Uy, Initial residual = 0.366329, Final residual = 8.02873e-09, No Iterations 19
smoothSolver:  Solving for T, Initial residual = 0.000239697, Final residual = 1.33935e-09, No Iterations 4
DICPCG:  Solving for p_rgh, Initial residual = 0.263093, Final residual = 9.34408e-09, No Iterations 962
max(U) 0.123024
min(p_rgh) 0.980996
DICPCG:  Solving for p_rgh, Initial residual = 0.0519497, Final residual = 9.30963e-09, No Iterations 922
max(U) 0.045262
min(p_rgh) 1.15553e+08
ExecutionTime = 28.52 s  ClockTime = 29 s

yPlus yPlus0 write:
    writing field yPlus
    patch walls y+ : min = 0.0025149, max = 0.423371, average = 0.0573042
    functionObjects::grad grad0 writing field: grad(U)
writeObjects rhofunc write:
    writing object rho
Courant Number mean: 0.0490499 max: 0.764333
Interface Courant Number mean: 0.000700639 max: 0.764333
deltaT = 0.00285714
Time = 0.0828571

PIMPLE: iteration 1
MULES: Solving for alpha.denseFluid
denseFluid volume fraction, min, max = 0.5 -1.2125e-10 1
MULES: Solving for alpha.lightFluid
lightFluid volume fraction, min, max = 0.5 -2.32825e-11 1
Phase-sum volume fraction, min, max = 1 1 1
MULES: Solving for alpha.denseFluid
denseFluid volume fraction, min, max = 0.5 -4.32165e-11 1
MULES: Solving for alpha.lightFluid
lightFluid volume fraction, min, max = 0.5 -1.25693e-11 1
Phase-sum volume fraction, min, max = 1 1 1
MULES: Solving for alpha.denseFluid
denseFluid volume fraction, min, max = 0.5 -4.13371e-11 1
MULES: Solving for alpha.lightFluid
lightFluid volume fraction, min, max = 0.5 -1.18652e-11 1
Phase-sum volume fraction, min, max = 1 1 1
MULES: Solving for alpha.denseFluid
denseFluid volume fraction, min, max = 0.5 -3.95374e-11 1
MULES: Solving for alpha.lightFluid
lightFluid volume fraction, min, max = 0.5 -2.38118e-10 1
Phase-sum volume fraction, min, max = 1 1 1
diagonal:  Solving for rho, Initial residual = 0, Final residual = 0, No Iterations 0
smoothSolver:  Solving for Ux, Initial residual = 0.426123, Final residual = 6.05433e-09, No Iterations 21
smoothSolver:  Solving for Uy, Initial residual = 0.331458, Final residual = 4.84725e-09, No Iterations 20
smoothSolver:  Solving for T, Initial residual = 0.000257973, Final residual = 1.23642e-09, No Iterations 4
DICPCG:  Solving for p_rgh, Initial residual = 0.273571, Final residual = 9.29722e-09, No Iterations 923
max(U) 0.162625
min(p_rgh) 4.38093e+08
DICPCG:  Solving for p_rgh, Initial residual = 0.0746378, Final residual = 9.5366e-09, No Iterations 916
max(U) 0.0531624
min(p_rgh) 0.981
ExecutionTime = 29.31 s  ClockTime = 30 s

Courant Number mean: 0.0545254 max: 0.987975
Interface Courant Number mean: 0.000820204 max: 0.987975
deltaT = 0.00244898
Time = 0.0853061

PIMPLE: iteration 1
MULES: Solving for alpha.denseFluid
denseFluid volume fraction, min, max = 0.5 -1.39942e-08 1
MULES: Solving for alpha.lightFluid
lightFluid volume fraction, min, max = 0.5 -3.20783e-09 1
Phase-sum volume fraction, min, max = 1 1 1
MULES: Solving for alpha.denseFluid
denseFluid volume fraction, min, max = 0.5 -3.70375e-11 1
MULES: Solving for alpha.lightFluid
lightFluid volume fraction, min, max = 0.5 -2.8662e-11 1
Phase-sum volume fraction, min, max = 1 1 1
MULES: Solving for alpha.denseFluid
denseFluid volume fraction, min, max = 0.5 -3.58453e-11 1
MULES: Solving for alpha.lightFluid
lightFluid volume fraction, min, max = 0.5 -2.51999e-11 1
Phase-sum volume fraction, min, max = 1 1 1
MULES: Solving for alpha.denseFluid
denseFluid volume fraction, min, max = 0.5 -3.469e-11 1
MULES: Solving for alpha.lightFluid
lightFluid volume fraction, min, max = 0.5 -2.06792e-10 1
Phase-sum volume fraction, min, max = 1 1 1
diagonal:  Solving for rho, Initial residual = 0, Final residual = 0, No Iterations 0
smoothSolver:  Solving for Ux, Initial residual = 0.11399, Final residual = 5.99616e-09, No Iterations 15
smoothSolver:  Solving for Uy, Initial residual = 0.862307, Final residual = 4.93514e-09, No Iterations 21
smoothSolver:  Solving for T, Initial residual = 0.000233005, Final residual = 6.84601e-10, No Iterations 4
DICPCG:  Solving for p_rgh, Initial residual = 0.268037, Final residual = 4.6246e-08, No Iterations 1000
max(U) 0.101055
min(p_rgh) 0.980984
DICPCG:  Solving for p_rgh, Initial residual = 0.0502827, Final residual = 9.80089e-09, No Iterations 965
max(U) 0.0487677
min(p_rgh) 4.81689e+08
ExecutionTime = 30.07 s  ClockTime = 31 s

Courant Number mean: 0.0486848 max: 0.713289
Interface Courant Number mean: 0.000673149 max: 0.713289
deltaT = 0.00293878
Time = 0.0882449

PIMPLE: iteration 1
MULES: Solving for alpha.denseFluid
denseFluid volume fraction, min, max = 0.5 -6.48541e-10 1
MULES: Solving for alpha.lightFluid
lightFluid volume fraction, min, max = 0.5 -1.83433e-09 1
Phase-sum volume fraction, min, max = 1 1 1
MULES: Solving for alpha.denseFluid
denseFluid volume fraction, min, max = 0.5 -2.57885e-10 1
MULES: Solving for alpha.lightFluid
lightFluid volume fraction, min, max = 0.5 -1.0753e-10 1
Phase-sum volume fraction, min, max = 1 1 1
MULES: Solving for alpha.denseFluid
denseFluid volume fraction, min, max = 0.5 -2.21166e-09 1
MULES: Solving for alpha.lightFluid
lightFluid volume fraction, min, max = 0.5 -2.5825e-11 1
Phase-sum volume fraction, min, max = 1 1 1
MULES: Solving for alpha.denseFluid
denseFluid volume fraction, min, max = 0.5 -2.85121e-11 1
MULES: Solving for alpha.lightFluid
lightFluid volume fraction, min, max = 0.5 -1.27593e-10 1
Phase-sum volume fraction, min, max = 1 1 1
diagonal:  Solving for rho, Initial residual = 0, Final residual = 0, No Iterations 0
smoothSolver:  Solving for Ux, Initial residual = 0.400441, Final residual = 6.92121e-09, No Iterations 21
smoothSolver:  Solving for Uy, Initial residual = 0.318827, Final residual = 6.32653e-09, No Iterations 20
smoothSolver:  Solving for T, Initial residual = 0.000271977, Final residual = 1.55855e-09, No Iterations 4
DICPCG:  Solving for p_rgh, Initial residual = 0.279182, Final residual = 9.48189e-09, No Iterations 927
max(U) 0.137309
min(p_rgh) 1.00986e+09
DICPCG:  Solving for p_rgh, Initial residual = 0.0800638, Final residual = 9.93746e-09, No Iterations 911
max(U) 0.0539591
min(p_rgh) 0.981
ExecutionTime = 30.79 s  ClockTime = 31 s

[...]
Phase-sum volume fraction, min, max = 1 1 1
MULES: Solving for alpha.denseFluid
denseFluid volume fraction, min, max = 0.5 -7.09996e-12 1
MULES: Solving for alpha.lightFluid
lightFluid volume fraction, min, max = 0.5 -1.79605e-10 1
Phase-sum volume fraction, min, max = 1 1 1
MULES: Solving for alpha.denseFluid
denseFluid volume fraction, min, max = 0.5 -7.08491e-12 1
MULES: Solving for alpha.lightFluid
lightFluid volume fraction, min, max = 0.5 -1.33461e-10 1
Phase-sum volume fraction, min, max = 1 1 1
MULES: Solving for alpha.denseFluid
denseFluid volume fraction, min, max = 0.5 -1.34136e-10 1
MULES: Solving for alpha.lightFluid
lightFluid volume fraction, min, max = 0.5 -1.32285e-10 1
Phase-sum volume fraction, min, max = 1 1 1
diagonal:  Solving for rho, Initial residual = 0, Final residual = 0, No Iterations 0
smoothSolver:  Solving for Ux, Initial residual = 0.00618821, Final residual = 1.47257e-09, No Iterations 6
smoothSolver:  Solving for Uy, Initial residual = 0.0313268, Final residual = 8.93267e-09, No Iterations 6
smoothSolver:  Solving for T, Initial residual = 0.00155877, Final residual = 5.70357e-09, No Iterations 4
DICPCG:  Solving for p_rgh, Initial residual = 0.0778024, Final residual = 9.33376e-09, No Iterations 877
max(U) 0.331873
min(p_rgh) 8.95473e+07
DICPCG:  Solving for p_rgh, Initial residual = 0.01069, Final residual = 9.67038e-09, No Iterations 880
max(U) 0.332077
min(p_rgh) 0.981
ExecutionTime = 1051.38 s  ClockTime = 1052 s

Courant Number mean: 0.187453 max: 0.816416
Interface Courant Number mean: 0.00847167 max: 0.689913
deltaT = 0.000359389
Time = 0.796765

PIMPLE: iteration 1
MULES: Solving for alpha.denseFluid
denseFluid volume fraction, min, max = 0.5 -1.86618e-11 1
MULES: Solving for alpha.lightFluid
lightFluid volume fraction, min, max = 0.5 -1.31103e-10 1
Phase-sum volume fraction, min, max = 1 1 1
MULES: Solving for alpha.denseFluid
denseFluid volume fraction, min, max = 0.5 -1.97286e-10 1
MULES: Solving for alpha.lightFluid
lightFluid volume fraction, min, max = 0.5 -1.29932e-10 1
Phase-sum volume fraction, min, max = 1 1 1
MULES: Solving for alpha.denseFluid
denseFluid volume fraction, min, max = 0.5 -9.50626e-11 1
MULES: Solving for alpha.lightFluid
lightFluid volume fraction, min, max = 0.5 -1.5394e-10 1
Phase-sum volume fraction, min, max = 1 1 1
MULES: Solving for alpha.denseFluid
denseFluid volume fraction, min, max = 0.5 -9.43368e-11 1
MULES: Solving for alpha.lightFluid
lightFluid volume fraction, min, max = 0.5 -1.27622e-10 1
Phase-sum volume fraction, min, max = 1 1 1
diagonal:  Solving for rho, Initial residual = 0, Final residual = 0, No Iterations 0
smoothSolver:  Solving for Ux, Initial residual = 0.0061904, Final residual = 1.33014e-09, No Iterations 6
smoothSolver:  Solving for Uy, Initial residual = 0.0313029, Final residual = 8.42649e-09, No Iterations 6
smoothSolver:  Solving for T, Initial residual = 0.0015594, Final residual = 5.66478e-09, No Iterations 4
DICPCG:  Solving for p_rgh, Initial residual = 0.0779662, Final residual = 9.68397e-09, No Iterations 880
max(U) 0.331821
min(p_rgh) 8.91624e+07
DICPCG:  Solving for p_rgh, Initial residual = 0.0107158, Final residual = 9.52164e-09, No Iterations 881
max(U) 0.332075
min(p_rgh) 0.981
ExecutionTime = 1052.09 s  ClockTime = 1053 s

Courant Number mean: 0.187539 max: 0.816322
Interface Courant Number mean: 0.00849985 max: 0.672906
deltaT = 0.000359389
Time = 0.797125

PIMPLE: iteration 1
MULES: Solving for alpha.denseFluid
denseFluid volume fraction, min, max = 0.5 -9.35788e-11 1
MULES: Solving for alpha.lightFluid
lightFluid volume fraction, min, max = 0.5 -1.26466e-10 1
Phase-sum volume fraction, min, max = 1 1 1
MULES: Solving for alpha.denseFluid
denseFluid volume fraction, min, max = 0.5 -9.28272e-11 1
MULES: Solving for alpha.lightFluid
lightFluid volume fraction, min, max = 0.5 -1.25321e-10 1
Phase-sum volume fraction, min, max = 1 1 1
MULES: Solving for alpha.denseFluid
denseFluid volume fraction, min, max = 0.5 -9.85518e-11 1
MULES: Solving for alpha.lightFluid
lightFluid volume fraction, min, max = 0.5 -1.24187e-10 1
Phase-sum volume fraction, min, max = 1 1 1
MULES: Solving for alpha.denseFluid
denseFluid volume fraction, min, max = 0.5 -9.13425e-11 1
MULES: Solving for alpha.lightFluid
lightFluid volume fraction, min, max = 0.5 -1.23063e-10 1
Phase-sum volume fraction, min, max = 1 1 1
diagonal:  Solving for rho, Initial residual = 0, Final residual = 0, No Iterations 0
smoothSolver:  Solving for Ux, Initial residual = 0.006183, Final residual = 8.92421e-09, No Iterations 5
smoothSolver:  Solving for Uy, Initial residual = 0.0312726, Final residual = 7.91741e-09, No Iterations 6
smoothSolver:  Solving for T, Initial residual = 0.00155989, Final residual = 6.46845e-09, No Iterations 4
DICPCG:  Solving for p_rgh, Initial residual = 0.0777937, Final residual = 9.99126e-09, No Iterations 869
max(U) 0.331808
min(p_rgh) 8.91168e+07
DICPCG:  Solving for p_rgh, Initial residual = 0.0106925, Final residual = 9.30086e-09, No Iterations 880
max(U) 0.332068
min(p_rgh) 0.981
ExecutionTime = 1052.78 s  ClockTime = 1053 s

Courant Number mean: 0.187626 max: 0.818015
Interface Courant Number mean: 0.0084924 max: 0.65376
deltaT = 0.000359389
Time = 0.797484

PIMPLE: iteration 1
MULES: Solving for alpha.denseFluid
denseFluid volume fraction, min, max = 0.5 -9.06009e-11 1
MULES: Solving for alpha.lightFluid
lightFluid volume fraction, min, max = 0.5 -1.21934e-10 1
Phase-sum volume fraction, min, max = 1 1 1
MULES: Solving for alpha.denseFluid
denseFluid volume fraction, min, max = 0.5 -8.98674e-11 1
MULES: Solving for alpha.lightFluid
lightFluid volume fraction, min, max = 0.5 -1.20815e-10 1
Phase-sum volume fraction, min, max = 1 1 1
MULES: Solving for alpha.denseFluid
denseFluid volume fraction, min, max = 0.5 -8.91402e-11 1
MULES: Solving for alpha.lightFluid
lightFluid volume fraction, min, max = 0.5 -1.19707e-10 1
Phase-sum volume fraction, min, max = 1 1 1
MULES: Solving for alpha.denseFluid
denseFluid volume fraction, min, max = 0.5 -8.84191e-11 1
MULES: Solving for alpha.lightFluid
lightFluid volume fraction, min, max = 0.5 -1.18609e-10 1
Phase-sum volume fraction, min, max = 1 1 1
diagonal:  Solving for rho, Initial residual = 0, Final residual = 0, No Iterations 0
smoothSolver:  Solving for Ux, Initial residual = 0.00618393, Final residual = 8.71793e-09, No Iterations 5
smoothSolver:  Solving for Uy, Initial residual = 0.0312525, Final residual = 7.79864e-09, No Iterations 6
smoothSolver:  Solving for T, Initial residual = 0.00156061, Final residual = 7.23802e-09, No Iterations 4
DICPCG:  Solving for p_rgh, Initial residual = 0.078151, Final residual = 9.37935e-09, No Iterations 875
max(U) 0.332606
min(p_rgh) 8.88715e+07
DICPCG:  Solving for p_rgh, Initial residual = 0.0107089, Final residual = 9.59354e-09, No Iterations 879
max(U) 0.332871
min(p_rgh) 0.981
ExecutionTime = 1053.47 s  ClockTime = 1054 s

Courant Number mean: 0.187712 max: 0.819572
Interface Courant Number mean: 0.00846396 max: 0.632121
deltaT = 0.000359389
Time = 0.797844

PIMPLE: iteration 1
MULES: Solving for alpha.denseFluid
denseFluid volume fraction, min, max = 0.5 -8.76959e-11 1
MULES: Solving for alpha.lightFluid
lightFluid volume fraction, min, max = 0.5 -1.17506e-10 1
Phase-sum volume fraction, min, max = 1 1 1
MULES: Solving for alpha.denseFluid
denseFluid volume fraction, min, max = 0.5 -8.69788e-11 1
MULES: Solving for alpha.lightFluid
lightFluid volume fraction, min, max = 0.5 -1.16414e-10 1
Phase-sum volume fraction, min, max = 1 1 1
MULES: Solving for alpha.denseFluid
denseFluid volume fraction, min, max = 0.5 -2.25431e-10 1
MULES: Solving for alpha.lightFluid
lightFluid volume fraction, min, max = 0.5 -1.65949e-10 1
Phase-sum volume fraction, min, max = 1 1 1
MULES: Solving for alpha.denseFluid
denseFluid volume fraction, min, max = 0.5 -8.87909e-11 1
MULES: Solving for alpha.lightFluid
lightFluid volume fraction, min, max = 0.5 -1.83861e-10 1
Phase-sum volume fraction, min, max = 1 1 1
diagonal:  Solving for rho, Initial residual = 0, Final residual = 0, No Iterations 0
smoothSolver:  Solving for Ux, Initial residual = 0.00619797, Final residual = 8.49249e-09, No Iterations 5
smoothSolver:  Solving for Uy, Initial residual = 0.0312392, Final residual = 7.59803e-09, No Iterations 6
smoothSolver:  Solving for T, Initial residual = 0.00156114, Final residual = 6.83314e-09, No Iterations 4
DICPCG:  Solving for p_rgh, Initial residual = 0.0778328, Final residual = 9.63678e-09, No Iterations 868
max(U) 0.333274
min(p_rgh) 8.86496e+07
DICPCG:  Solving for p_rgh, Initial residual = 0.0106758, Final residual = 9.58465e-09, No Iterations 878
max(U) 0.333507
min(p_rgh) 0.981
ExecutionTime = 1054.17 s  ClockTime = 1055 s

Courant Number mean: 0.187799 max: 0.820686
Interface Courant Number mean: 0.00847558 max: 0.609277
deltaT = 0.000359389
Time = 0.798203

PIMPLE: iteration 1
MULES: Solving for alpha.denseFluid
denseFluid volume fraction, min, max = 0.5 -8.48804e-11 1
MULES: Solving for alpha.lightFluid
lightFluid volume fraction, min, max = 0.5 -1.13184e-10 1
Phase-sum volume fraction, min, max = 1 1 1
MULES: Solving for alpha.denseFluid
denseFluid volume fraction, min, max = 0.5 -8.42034e-11 1
MULES: Solving for alpha.lightFluid
lightFluid volume fraction, min, max = 0.5 -1.12124e-10 1
Phase-sum volume fraction, min, max = 1 1 1
MULES: Solving for alpha.denseFluid
denseFluid volume fraction, min, max = 0.5 -8.35319e-11 1
MULES: Solving for alpha.lightFluid
lightFluid volume fraction, min, max = 0.5 -1.13027e-10 1
Phase-sum volume fraction, min, max = 1 1 1
MULES: Solving for alpha.denseFluid
denseFluid volume fraction, min, max = 0.5 -8.28656e-11 1
MULES: Solving for alpha.lightFluid
lightFluid volume fraction, min, max = 0.5 -1.10033e-10 1
Phase-sum volume fraction, min, max = 1 1 1
diagonal:  Solving for rho, Initial residual = 0, Final residual = 0, No Iterations 0
smoothSolver:  Solving for Ux, Initial residual = 0.00619952, Final residual = 8.33825e-09, No Iterations 5
smoothSolver:  Solving for Uy, Initial residual = 0.031217, Final residual = 7.53506e-09, No Iterations 6
smoothSolver:  Solving for T, Initial residual = 0.00156186, Final residual = 6.5559e-09, No Iterations 4
DICPCG:  Solving for p_rgh, Initial residual = 0.0779416, Final residual = 9.37916e-09, No Iterations 867
max(U) 0.333604
min(p_rgh) 8.92123e+07
DICPCG:  Solving for p_rgh, Initial residual = 0.0107081, Final residual = 9.71918e-09, No Iterations 878
max(U) 0.333826
min(p_rgh) 0.981
ExecutionTime = 1054.87 s  ClockTime = 1055 s

Courant Number mean: 0.187887 max: 0.821033
Interface Courant Number mean: 0.00845316 max: 0.587043
deltaT = 0.000359389
Time = 0.798562

PIMPLE: iteration 1
MULES: Solving for alpha.denseFluid
denseFluid volume fraction, min, max = 0.5 -8.21744e-11 1
MULES: Solving for alpha.lightFluid
lightFluid volume fraction, min, max = 0.5 -1.77315e-10 1
Phase-sum volume fraction, min, max = 1 1 1
MULES: Solving for alpha.denseFluid
denseFluid volume fraction, min, max = 0.5 -8.14892e-11 1
MULES: Solving for alpha.lightFluid
lightFluid volume fraction, min, max = 0.5 -1.66227e-10 1
Phase-sum volume fraction, min, max = 1 1 1
MULES: Solving for alpha.denseFluid
denseFluid volume fraction, min, max = 0.5 -9.37148e-11 1
MULES: Solving for alpha.lightFluid
lightFluid volume fraction, min, max = 0.5 -1.58076e-10 1
Phase-sum volume fraction, min, max = 1 1 1
MULES: Solving for alpha.denseFluid
denseFluid volume fraction, min, max = 0.5 -8.29274e-11 1
MULES: Solving for alpha.lightFluid
lightFluid volume fraction, min, max = 0.5 -2.01581e-10 1
Phase-sum volume fraction, min, max = 1 1 1
diagonal:  Solving for rho, Initial residual = 0, Final residual = 0, No Iterations 0
smoothSolver:  Solving for Ux, Initial residual = 0.00620358, Final residual = 8.33225e-09, No Iterations 5
smoothSolver:  Solving for Uy, Initial residual = 0.0312037, Final residual = 7.53185e-09, No Iterations 6
smoothSolver:  Solving for T, Initial residual = 0.0015624, Final residual = 6.43455e-09, No Iterations 4
DICPCG:  Solving for p_rgh, Initial residual = 0.0781938, Final residual = 9.53976e-09, No Iterations 880
max(U) 0.333615
min(p_rgh) 8.96558e+07
DICPCG:  Solving for p_rgh, Initial residual = 0.0107416, Final residual = 9.90498e-09, No Iterations 878
max(U) 0.333878
min(p_rgh) 0.981
ExecutionTime = 1055.57 s  ClockTime = 1056 s

Courant Number mean: 0.187975 max: 0.820726
Interface Courant Number mean: 0.00844638 max: 0.679127
deltaT = 0.000359389
Time = 0.798922

PIMPLE: iteration 1
MULES: Solving for alpha.denseFluid
denseFluid volume fraction, min, max = 0.5 -7.94617e-11 1
MULES: Solving for alpha.lightFluid
lightFluid volume fraction, min, max = 0.5 -1.42776e-10 1
Phase-sum volume fraction, min, max = 1 1 1
MULES: Solving for alpha.denseFluid
denseFluid volume fraction, min, max = 0.5 -7.87928e-11 1
MULES: Solving for alpha.lightFluid
lightFluid volume fraction, min, max = 0.5 -1.72609e-10 1
Phase-sum volume fraction, min, max = 1 1 1
MULES: Solving for alpha.denseFluid
denseFluid volume fraction, min, max = 0.5 -7.81297e-11 1
MULES: Solving for alpha.lightFluid
lightFluid volume fraction, min, max = 0.5 -1.46217e-10 1
Phase-sum volume fraction, min, max = 1 1 1
MULES: Solving for alpha.denseFluid
denseFluid volume fraction, min, max = 0.5 -7.74724e-11 1
MULES: Solving for alpha.lightFluid
lightFluid volume fraction, min, max = 0.5 -1.22322e-10 1
Phase-sum volume fraction, min, max = 1 1 1
diagonal:  Solving for rho, Initial residual = 0, Final residual = 0, No Iterations 0
smoothSolver:  Solving for Ux, Initial residual = 0.00620602, Final residual = 8.62691e-09, No Iterations 5
smoothSolver:  Solving for Uy, Initial residual = 0.0311728, Final residual = 7.52825e-09, No Iterations 6
smoothSolver:  Solving for T, Initial residual = 0.00156293, Final residual = 6.4837e-09, No Iterations 4
DICPCG:  Solving for p_rgh, Initial residual = 0.0779871, Final residual = 9.34439e-09, No Iterations 880
max(U) 0.333547
min(p_rgh) 8.87099e+07
DICPCG:  Solving for p_rgh, Initial residual = 0.010741, Final residual = 9.61963e-09, No Iterations 878
max(U) 0.333788
min(p_rgh) 0.981
ExecutionTime = 1056.26 s  ClockTime = 1057 s

Courant Number mean: 0.188064 max: 0.821764
Interface Courant Number mean: 0.00849983 max: 0.661433
deltaT = 0.000359389
Time = 0.799281

PIMPLE: iteration 1
MULES: Solving for alpha.denseFluid
denseFluid volume fraction, min, max = 0.5 -7.68139e-11 1
MULES: Solving for alpha.lightFluid
lightFluid volume fraction, min, max = 0.5 -1.16028e-10 1
Phase-sum volume fraction, min, max = 1 1 1
MULES: Solving for alpha.denseFluid
denseFluid volume fraction, min, max = 0.5 -7.61613e-11 1
MULES: Solving for alpha.lightFluid
lightFluid volume fraction, min, max = 0.5 -1.31624e-10 1
Phase-sum volume fraction, min, max = 1 1 1
MULES: Solving for alpha.denseFluid
denseFluid volume fraction, min, max = 0.5 -7.55143e-11 1
MULES: Solving for alpha.lightFluid
lightFluid volume fraction, min, max = 0.5 -1.04391e-10 1
Phase-sum volume fraction, min, max = 1 1 1
MULES: Solving for alpha.denseFluid
denseFluid volume fraction, min, max = 0.5 -7.48731e-11 1
MULES: Solving for alpha.lightFluid
lightFluid volume fraction, min, max = 0.5 -2.6134e-10 1
Phase-sum volume fraction, min, max = 1 1 1
diagonal:  Solving for rho, Initial residual = 0, Final residual = 0, No Iterations 0
smoothSolver:  Solving for Ux, Initial residual = 0.00619952, Final residual = 8.96254e-09, No Iterations 5
smoothSolver:  Solving for Uy, Initial residual = 0.0311495, Final residual = 7.59207e-09, No Iterations 6
smoothSolver:  Solving for T, Initial residual = 0.00156347, Final residual = 6.3109e-09, No Iterations 4
DICPCG:  Solving for p_rgh, Initial residual = 0.0781865, Final residual = 9.27243e-09, No Iterations 880
max(U) 0.334125
min(p_rgh) 8.81906e+07
DICPCG:  Solving for p_rgh, Initial residual = 0.0107301, Final residual = 9.70214e-09, No Iterations 878
max(U) 0.3344
min(p_rgh) 0.981
ExecutionTime = 1056.96 s  ClockTime = 1057 s

Courant Number mean: 0.188152 max: 0.823317
Interface Courant Number mean: 0.00843963 max: 0.640719
deltaT = 0.000359389
Time = 0.799641

PIMPLE: iteration 1
MULES: Solving for alpha.denseFluid
denseFluid volume fraction, min, max = 0.5 -7.42499e-11 1
MULES: Solving for alpha.lightFluid
lightFluid volume fraction, min, max = 0.5 -9.70383e-11 1
Phase-sum volume fraction, min, max = 1 1 1
MULES: Solving for alpha.denseFluid
denseFluid volume fraction, min, max = 0.5 -7.36318e-11 1
MULES: Solving for alpha.lightFluid
lightFluid volume fraction, min, max = 0.5 -9.6083e-11 1
Phase-sum volume fraction, min, max = 1 1 1
MULES: Solving for alpha.denseFluid
denseFluid volume fraction, min, max = 0.5 -7.3019e-11 1
MULES: Solving for alpha.lightFluid
lightFluid volume fraction, min, max = 0.5 -9.51372e-11 1
Phase-sum volume fraction, min, max = 1 1 1
MULES: Solving for alpha.denseFluid
denseFluid volume fraction, min, max = 0.5 -7.90446e-11 1
MULES: Solving for alpha.lightFluid
lightFluid volume fraction, min, max = 0.5 -9.42399e-11 1
Phase-sum volume fraction, min, max = 1 1 1
diagonal:  Solving for rho, Initial residual = 0, Final residual = 0, No Iterations 0
smoothSolver:  Solving for Ux, Initial residual = 0.00620073, Final residual = 8.94854e-09, No Iterations 5
smoothSolver:  Solving for Uy, Initial residual = 0.0311457, Final residual = 7.69401e-09, No Iterations 6
smoothSolver:  Solving for T, Initial residual = 0.001564, Final residual = 5.82819e-09, No Iterations 4
DICPCG:  Solving for p_rgh, Initial residual = 0.0783468, Final residual = 9.88823e-09, No Iterations 879
max(U) 0.334784
min(p_rgh) 8.69945e+07
DICPCG:  Solving for p_rgh, Initial residual = 0.0107298, Final residual = 9.62949e-09, No Iterations 877
max(U) 0.335032
min(p_rgh) 0.981
ExecutionTime = 1057.66 s  ClockTime = 1058 s

Courant Number mean: 0.188242 max: 0.824494
Interface Courant Number mean: 0.00843596 max: 0.617937
deltaT = 0.000359389
Time = 0.8

PIMPLE: iteration 1
MULES: Solving for alpha.denseFluid
denseFluid volume fraction, min, max = 0.5 -7.17845e-11 1
MULES: Solving for alpha.lightFluid
lightFluid volume fraction, min, max = 0.5 -2.31048e-10 1
Phase-sum volume fraction, min, max = 1 1 1
MULES: Solving for alpha.denseFluid
denseFluid volume fraction, min, max = 0.5 -7.1181e-11 1
MULES: Solving for alpha.lightFluid
lightFluid volume fraction, min, max = 0.5 -9.2332e-11 1
Phase-sum volume fraction, min, max = 1 1 1
MULES: Solving for alpha.denseFluid
denseFluid volume fraction, min, max = 0.5 -1.6719e-10 1
MULES: Solving for alpha.lightFluid
lightFluid volume fraction, min, max = 0.5 -1.29023e-10 1
Phase-sum volume fraction, min, max = 1 1 1
MULES: Solving for alpha.denseFluid
denseFluid volume fraction, min, max = 0.5 -1.05692e-10 1
MULES: Solving for alpha.lightFluid
lightFluid volume fraction, min, max = 0.5 -1.73393e-10 1
Phase-sum volume fraction, min, max = 1 1 1
diagonal:  Solving for rho, Initial residual = 0, Final residual = 0, No Iterations 0
smoothSolver:  Solving for Ux, Initial residual = 0.00619639, Final residual = 8.82273e-09, No Iterations 5
smoothSolver:  Solving for Uy, Initial residual = 0.0311141, Final residual = 7.83578e-09, No Iterations 6
smoothSolver:  Solving for T, Initial residual = 0.0015648, Final residual = 5.46409e-09, No Iterations 4
DICPCG:  Solving for p_rgh, Initial residual = 0.0783654, Final residual = 9.80304e-09, No Iterations 878
max(U) 0.335157
min(p_rgh) 8.63356e+07
DICPCG:  Solving for p_rgh, Initial residual = 0.0107786, Final residual = 9.77505e-09, No Iterations 876
max(U) 0.335386
min(p_rgh) 0.981
ExecutionTime = 1058.48 s  ClockTime = 1059 s

yPlus yPlus0 write:
    writing field yPlus
    patch walls y+ : min = 0.00567162, max = 0.596836, average = 0.149484
    functionObjects::grad grad0 writing field: grad(U)
writeObjects rhofunc write:
    writing object rho
End

Finalising parallel run
