/*---------------------------------------------------------------------------*\
| =========                 |                                                 |
| \\      /  F ield         | OpenFOAM: The Open Source CFD Toolbox           |
|  \\    /   O peration     | Version:  2206                                  |
|   \\  /    A nd           | Website:  www.openfoam.com                      |
|    \\/     M anipulation  |                                                 |
\*---------------------------------------------------------------------------*/
Build  : _76d719d1-20220624 OPENFOAM=2206 version=v2206
Arch   : "LSB;label=64;scalar=64"
Exec   : pisoFoam -parallel
Date   : Apr 10 2024
Time   : 14:48:10
Host   : DESKTOP-BTFG136
PID    : 8814
I/O    : uncollated
Case   : /home/noreff/works/OpenFOAM-user/v2206/Projects/validatioin_CHAD/cavity_piso
nProcs : 8
Hosts  :
(
    (DESKTOP-BTFG136 8)
)
Pstream initialized with:
    floatTransfer      : 0
    nProcsSimpleSum    : 0
    commsType          : nonBlocking
    polling iterations : 0
trapFpe: Floating point exception trapping enabled (FOAM_SIGFPE).
fileModificationChecking : Monitoring run-time modified files using timeStampMaster (fileModificationSkew 5, maxFileModificationPolls 20)
allowSystemOperations : Allowing user-supplied system call operations

// * * * * * * * * * * * * * * * * * * * * * * * * * * * * * * * * * * * * * //
Create time

Create mesh for time = 0


PISO: Operating solver in PISO mode

Reading field p

Reading field U

Reading/calculating face flux field phi

Selecting incompressible transport model Newtonian
Selecting turbulence model type LES
Selecting LES turbulence model dynamicKEqn
Selecting LES delta type cubeRootVol
--> FOAM Warning : 
    From void Foam::LESModels::cubeRootVolDelta::calcDelta()
    in file LES/LESdeltas/cubeRootVolDelta/cubeRootVolDelta.C at line 58
    Case is 2D, LES is not strictly applicable

bounding k, min: 1e-20 max: 1e-06 average: 1e-20
dynamicKEqnCoeffs
{
    filter          simple;
}

No MRF models present

No finite volume options present

Starting time loop

Time = 0.005

Courant Number mean: 0 max: 0
smoothSolver:  Solving for Ux, Initial residual = 0, Final residual = 0, No Iterations 0
smoothSolver:  Solving for Uy, Initial residual = 0, Final residual = 0, No Iterations 0
GAMG:  Solving for p, Initial residual = 0, Final residual = 0, No Iterations 0
time step continuity errors : sum local = 0, global = 0, cumulative = 0
GAMG:  Solving for p, Initial residual = 0, Final residual = 0, No Iterations 0
time step continuity errors : sum local = 0, global = 0, cumulative = 0
smoothSolver:  Solving for k, Initial residual = 1, Final residual = 4.95437e-06, No Iterations 6
bounding k, min: 1e-20 max: 1e-06 average: 1.44374e-09
ExecutionTime = 0.06 s  ClockTime = 0 s

Time = 0.01

Courant Number mean: 0 max: 0
smoothSolver:  Solving for Ux, Initial residual = 0, Final residual = 0, No Iterations 0
smoothSolver:  Solving for Uy, Initial residual = 0, Final residual = 0, No Iterations 0
GAMG:  Solving for p, Initial residual = 0, Final residual = 0, No Iterations 0
time step continuity errors : sum local = 0, global = 0, cumulative = 0
GAMG:  Solving for p, Initial residual = 0, Final residual = 0, No Iterations 0
time step continuity errors : sum local = 0, global = 0, cumulative = 0
smoothSolver:  Solving for k, Initial residual = 0.0999604, Final residual = 6.90055e-06, No Iterations 4
bounding k, min: 1e-20 max: 1e-06 average: 2.68605e-09
ExecutionTime = 0.07 s  ClockTime = 0 s

Time = 0.015

Courant Number mean: 0 max: 0
smoothSolver:  Solving for Ux, Initial residual = 0, Final residual = 0, No Iterations 0
smoothSolver:  Solving for Uy, Initial residual = 0, Final residual = 0, No Iterations 0
GAMG:  Solving for p, Initial residual = 0, Final residual = 0, No Iterations 0
time step continuity errors : sum local = 0, global = 0, cumulative = 0
GAMG:  Solving for p, Initial residual = 0, Final residual = 0, No Iterations 0
time step continuity errors : sum local = 0, global = 0, cumulative = 0
smoothSolver:  Solving for k, Initial residual = 0.0466649, Final residual = 3.2286e-06, No Iterations 4
bounding k, min: 1e-20 max: 1e-06 average: 3.71614e-09
ExecutionTime = 0.08 s  ClockTime = 0 s

Time = 0.02

Courant Number mean: 0 max: 0
smoothSolver:  Solving for Ux, Initial residual = 0, Final residual = 0, No Iterations 0
smoothSolver:  Solving for Uy, Initial residual = 0, Final residual = 0, No Iterations 0
GAMG:  Solving for p, Initial residual = 0, Final residual = 0, No Iterations 0
time step continuity errors : sum local = 0, global = 0, cumulative = 0
GAMG:  Solving for p, Initial residual = 0, Final residual = 0, No Iterations 0
time step continuity errors : sum local = 0, global = 0, cumulative = 0
smoothSolver:  Solving for k, Initial residual = 0.0282853, Final residual = 1.95768e-06, No Iterations 4
bounding k, min: 1e-20 max: 1e-06 average: 4.57377e-09
ExecutionTime = 0.09 s  ClockTime = 0 s

Time = 0.025

Courant Number mean: 0 max: 0
smoothSolver:  Solving for Ux, Initial residual = 0, Final residual = 0, No Iterations 0
smoothSolver:  Solving for Uy, Initial residual = 0, Final residual = 0, No Iterations 0
GAMG:  Solving for p, Initial residual = 0, Final residual = 0, No Iterations 0
time step continuity errors : sum local = 0, global = 0, cumulative = 0
GAMG:  Solving for p, Initial residual = 0, Final residual = 0, No Iterations 0
time step continuity errors : sum local = 0, global = 0, cumulative = 0
smoothSolver:  Solving for k, Initial residual = 0.0195019, Final residual = 1.34667e-06, No Iterations 4
bounding k, min: 1e-20 max: 1e-06 average: 5.30245e-09
ExecutionTime = 0.1 s  ClockTime = 0 s

Time = 0.03

Courant Number mean: 0 max: 0
smoothSolver:  Solving for Ux, Initial residual = 0, Final residual = 0, No Iterations 0
smoothSolver:  Solving for Uy, Initial residual = 0, Final residual = 0, No Iterations 0
GAMG:  Solving for p, Initial residual = 0, Final residual = 0, No Iterations 0
time step continuity errors : sum local = 0, global = 0, cumulative = 0
GAMG:  Solving for p, Initial residual = 0, Final residual = 0, No Iterations 0
time step continuity errors : sum local = 0, global = 0, cumulative = 0
smoothSolver:  Solving for k, Initial residual = 0.0145996, Final residual = 1.00309e-06, No Iterations 4
bounding k, min: 1e-20 max: 1e-06 average: 5.93688e-09
ExecutionTime = 0.11 s  ClockTime = 0 s

Time = 0.035

Courant Number mean: 0 max: 0
smoothSolver:  Solving for Ux, Initial residual = 0, Final residual = 0, No Iterations 0
smoothSolver:  Solving for Uy, Initial residual = 0, Final residual = 0, No Iterations 0
GAMG:  Solving for p, Initial residual = 0, Final residual = 0, No Iterations 0
time step continuity errors : sum local = 0, global = 0, cumulative = 0
GAMG:  Solving for p, Initial residual = 0, Final residual = 0, No Iterations 0
time step continuity errors : sum local = 0, global = 0, cumulative = 0
smoothSolver:  Solving for k, Initial residual = 0.0115826, Final residual = 8.54343e-06, No Iterations 3
bounding k, min: 1e-20 max: 1e-06 average: 6.50149e-09
ExecutionTime = 0.11 s  ClockTime = 0 s

Time = 0.04

Courant Number mean: 0 max: 0
smoothSolver:  Solving for Ux, Initial residual = 0, Final residual = 0, No Iterations 0
smoothSolver:  Solving for Uy, Initial residual = 0, Final residual = 0, No Iterations 0
GAMG:  Solving for p, Initial residual = 0, Final residual = 0, No Iterations 0
time step continuity errors : sum local = 0, global = 0, cumulative = 0
GAMG:  Solving for p, Initial residual = 0, Final residual = 0, No Iterations 0
time step continuity errors : sum local = 0, global = 0, cumulative = 0
smoothSolver:  Solving for k, Initial residual = 0.00958294, Final residual = 7.0322e-06, No Iterations 3
bounding k, min: 1e-20 max: 1e-06 average: 7.01388e-09
ExecutionTime = 0.12 s  ClockTime = 0 s

Time = 0.045

Courant Number mean: 0 max: 0
smoothSolver:  Solving for Ux, Initial residual = 0, Final residual = 0, No Iterations 0
smoothSolver:  Solving for Uy, Initial residual = 0, Final residual = 0, No Iterations 0
GAMG:  Solving for p, Initial residual = 0, Final residual = 0, No Iterations 0
time step continuity errors : sum local = 0, global = 0, cumulative = 0
GAMG:  Solving for p, Initial residual = 0, Final residual = 0, No Iterations 0
time step continuity errors : sum local = 0, global = 0, cumulative = 0
smoothSolver:  Solving for k, Initial residual = 0.00818083, Final residual = 5.96473e-06, No Iterations 3
bounding k, min: 1e-20 max: 1e-06 average: 7.48593e-09
ExecutionTime = 0.13 s  ClockTime = 0 s

Time = 0.05

Courant Number mean: 0 max: 0
smoothSolver:  Solving for Ux, Initial residual = 0, Final residual = 0, No Iterations 0
smoothSolver:  Solving for Uy, Initial residual = 0, Final residual = 0, No Iterations 0
GAMG:  Solving for p, Initial residual = 0, Final residual = 0, No Iterations 0
time step continuity errors : sum local = 0, global = 0, cumulative = 0
GAMG:  Solving for p, Initial residual = 0, Final residual = 0, No Iterations 0
time step continuity errors : sum local = 0, global = 0, cumulative = 0
smoothSolver:  Solving for k, Initial residual = 0.00714804, Final residual = 5.17396e-06, No Iterations 3
bounding k, min: 1e-20 max: 1e-06 average: 7.92584e-09
ExecutionTime = 0.14 s  ClockTime = 0 s

Time = 0.055

Courant Number mean: 0 max: 0
smoothSolver:  Solving for Ux, Initial residual = 0, Final residual = 0, No Iterations 0
smoothSolver:  Solving for Uy, Initial residual = 0, Final residual = 0, No Iterations 0
GAMG:  Solving for p, Initial residual = 0, Final residual = 0, No Iterations 0
time step continuity errors : sum local = 0, global = 0, cumulative = 0
GAMG:  Solving for p, Initial residual = 0, Final residual = 0, No Iterations 0
time step continuity errors : sum local = 0, global = 0, cumulative = 0
smoothSolver:  Solving for k, Initial residual = 0.00635478, Final residual = 4.56433e-06, No Iterations 3
bounding k, min: 1e-20 max: 1e-06 average: 8.3394e-09
ExecutionTime = 0.15 s  ClockTime = 0 s

Time = 0.06

Courant Number mean: 0 max: 0
smoothSolver:  Solving for Ux, Initial residual = 0, Final residual = 0, No Iterations 0
smoothSolver:  Solving for Uy, Initial residual = 0, Final residual = 0, No Iterations 0
GAMG:  Solving for p, Initial residual = 0, Final residual = 0, No Iterations 0
time step continuity errors : sum local = 0, global = 0, cumulative = 0
GAMG:  Solving for p, Initial residual = 0, Final residual = 0, No Iterations 0
time step continuity errors : sum local = 0, global = 0, cumulative = 0
smoothSolver:  Solving for k, Initial residual = 0.00572478, Final residual = 4.0792e-06, No Iterations 3
bounding k, min: 1e-20 max: 1e-06 average: 8.73081e-09
ExecutionTime = 0.16 s  ClockTime = 0 s

Time = 0.065

Courant Number mean: 0 max: 0
smoothSolver:  Solving for Ux, Initial residual = 0, Final residual = 0, No Iterations 0
smoothSolver:  Solving for Uy, Initial residual = 0, Final residual = 0, No Iterations 0
GAMG:  Solving for p, Initial residual = 0, Final residual = 0, No Iterations 0
time step continuity errors : sum local = 0, global = 0, cumulative = 0
GAMG:  Solving for p, Initial residual = 0, Final residual = 0, No Iterations 0
time step continuity errors : sum local = 0, global = 0, cumulative = 0
smoothSolver:  Solving for k, Initial residual = 0.00521131, Final residual = 3.68357e-06, No Iterations 3
bounding k, min: 1e-20 max: 1e-06 average: 9.10324e-09
ExecutionTime = 0.16 s  ClockTime = 0 s

Time = 0.07

Courant Number mean: 0 max: 0
smoothSolver:  Solving for Ux, Initial residual = 0, Final residual = 0, No Iterations 0
smoothSolver:  Solving for Uy, Initial residual = 0, Final residual = 0, No Iterations 0
GAMG:  Solving for p, Initial residual = 0, Final residual = 0, No Iterations 0
time step continuity errors : sum local = 0, global = 0, cumulative = 0
GAMG:  Solving for p, Initial residual = 0, Final residual = 0, No Iterations 0
time step continuity errors : sum local = 0, global = 0, cumulative = 0
smoothSolver:  Solving for k, Initial residual = 0.00478511, Final residual = 3.35525e-06, No Iterations 3
bounding k, min: 1e-20 max: 1e-06 average: 9.45915e-09
ExecutionTime = 0.17 s  ClockTime = 0 s

Time = 0.075

Courant Number mean: 0 max: 0
smoothSolver:  Solving for Ux, Initial residual = 0, Final residual = 0, No Iterations 0
smoothSolver:  Solving for Uy, Initial residual = 0, Final residual = 0, No Iterations 0
GAMG:  Solving for p, Initial residual = 0, Final residual = 0, No Iterations 0
time step continuity errors : sum local = 0, global = 0, cumulative = 0
GAMG:  Solving for p, Initial residual = 0, Final residual = 0, No Iterations 0
time step continuity errors : sum local = 0, global = 0, cumulative = 0
smoothSolver:  Solving for k, Initial residual = 0.00442536, Final residual = 3.07839e-06, No Iterations 3
bounding k, min: 1e-20 max: 1e-06 average: 9.80048e-09
ExecutionTime = 0.18 s  ClockTime = 0 s

Time = 0.08

Courant Number mean: 0 max: 0
smoothSolver:  Solving for Ux, Initial residual = 0, Final residual = 0, No Iterations 0
smoothSolver:  Solving for Uy, Initial residual = 0, Final residual = 0, No Iterations 0
GAMG:  Solving for p, Initial residual = 0, Final residual = 0, No Iterations 0
time step continuity errors : sum local = 0, global = 0, cumulative = 0
GAMG:  Solving for p, Initial residual = 0, Final residual = 0, No Iterations 0
time step continuity errors : sum local = 0, global = 0, cumulative = 0
smoothSolver:  Solving for k, Initial residual = 0.00411746, Final residual = 2.84178e-06, No Iterations 3
bounding k, min: 1e-20 max: 1e-06 average: 1.01288e-08
ExecutionTime = 0.19 s  ClockTime = 0 s

Time = 0.085

Courant Number mean: 0 max: 0
smoothSolver:  Solving for Ux, Initial residual = 0, Final residual = 0, No Iterations 0
smoothSolver:  Solving for Uy, Initial residual = 0, Final residual = 0, No Iterations 0
GAMG:  Solving for p, Initial residual = 0, Final residual = 0, No Iterations 0
time step continuity errors : sum local = 0, global = 0, cumulative = 0
GAMG:  Solving for p, Initial residual = 0, Final residual = 0, No Iterations 0
time step continuity errors : sum local = 0, global = 0, cumulative = 0
smoothSolver:  Solving for k, Initial residual = 0.00385088, Final residual = 2.6373e-06, No Iterations 3
bounding k, min: 1e-20 max: 1e-06 average: 1.04455e-08
ExecutionTime = 0.2 s  ClockTime = 0 s

Time = 0.09

Courant Number mean: 0 max: 0
smoothSolver:  Solving for Ux, Initial residual = 0, Final residual = 0, No Iterations 0
smoothSolver:  Solving for Uy, Initial residual = 0, Final residual = 0, No Iterations 0
GAMG:  Solving for p, Initial residual = 0, Final residual = 0, No Iterations 0
time step continuity errors : sum local = 0, global = 0, cumulative = 0
GAMG:  Solving for p, Initial residual = 0, Final residual = 0, No Iterations 0
time step continuity errors : sum local = 0, global = 0, cumulative = 0
smoothSolver:  Solving for k, Initial residual = 0.00361744, Final residual = 2.45865e-06, No Iterations 3
bounding k, min: 1e-20 max: 1e-06 average: 1.07515e-08
ExecutionTime = 0.21 s  ClockTime = 0 s

Time = 0.095

Courant Number mean: 0 max: 0
smoothSolver:  Solving for Ux, Initial residual = 0, Final residual = 0, No Iterations 0
smoothSolver:  Solving for Uy, Initial residual = 0, Final residual = 0, No Iterations 0
GAMG:  Solving for p, Initial residual = 0, Final residual = 0, No Iterations 0
time step continuity errors : sum local = 0, global = 0, cumulative = 0
GAMG:  Solving for p, Initial residual = 0, Final residual = 0, No Iterations 0
time step continuity errors : sum local = 0, global = 0, cumulative = 0
smoothSolver:  Solving for k, Initial residual = 0.00341083, Final residual = 2.30097e-06, No Iterations 3
bounding k, min: 1e-20 max: 1e-06 average: 1.10479e-08
ExecutionTime = 0.21 s  ClockTime = 0 s

Time = 0.1

Courant Number mean: 0 max: 0
smoothSolver:  Solving for Ux, Initial residual = 0, Final residual = 0, No Iterations 0
smoothSolver:  Solving for Uy, Initial residual = 0, Final residual = 0, No Iterations 0
GAMG:  Solving for p, Initial residual = 0, Final residual = 0, No Iterations 0
time step continuity errors : sum local = 0, global = 0, cumulative = 0
GAMG:  Solving for p, Initial residual = 0, Final residual = 0, No Iterations 0
time step continuity errors : sum local = 0, global = 0, cumulative = 0
smoothSolver:  Solving for k, Initial residual = 0.00322652, Final residual = 2.16073e-06, No Iterations 3
bounding k, min: 1e-20 max: 1e-06 average: 1.13355e-08
ExecutionTime = 0.22 s  ClockTime = 0 s

Time = 0.105

Courant Number mean: 0 max: 0
smoothSolver:  Solving for Ux, Initial residual = 0, Final residual = 0, No Iterations 0
smoothSolver:  Solving for Uy, Initial residual = 0, Final residual = 0, No Iterations 0
GAMG:  Solving for p, Initial residual = 0, Final residual = 0, No Iterations 0
time step continuity errors : sum local = 0, global = 0, cumulative = 0
GAMG:  Solving for p, Initial residual = 0, Final residual = 0, No Iterations 0
time step continuity errors : sum local = 0, global = 0, cumulative = 0
smoothSolver:  Solving for k, Initial residual = 0.00306158, Final residual = 2.03557e-06, No Iterations 3
bounding k, min: 1e-20 max: 1e-06 average: 1.16149e-08
ExecutionTime = 0.23 s  ClockTime = 0 s

Time = 0.11

Courant Number mean: 0 max: 0
smoothSolver:  Solving for Ux, Initial residual = 0, Final residual = 0, No Iterations 0
smoothSolver:  Solving for Uy, Initial residual = 0, Final residual = 0, No Iterations 0
GAMG:  Solving for p, Initial residual = 0, Final residual = 0, No Iterations 0
time step continuity errors : sum local = 0, global = 0, cumulative = 0
GAMG:  Solving for p, Initial residual = 0, Final residual = 0, No Iterations 0
time step continuity errors : sum local = 0, global = 0, cumulative = 0
smoothSolver:  Solving for k, Initial residual = 0.00291312, Final residual = 1.92322e-06, No Iterations 3
bounding k, min: 1e-20 max: 1e-06 average: 1.18868e-08
ExecutionTime = 0.24 s  ClockTime = 0 s

Time = 0.115

Courant Number mean: 0 max: 0
smoothSolver:  Solving for Ux, Initial residual = 0, Final residual = 0, No Iterations 0
smoothSolver:  Solving for Uy, Initial residual = 0, Final residual = 0, No Iterations 0
GAMG:  Solving for p, Initial residual = 0, Final residual = 0, No Iterations 0
time step continuity errors : sum local = 0, global = 0, cumulative = 0
GAMG:  Solving for p, Initial residual = 0, Final residual = 0, No Iterations 0
time step continuity errors : sum local = 0, global = 0, cumulative = 0
smoothSolver:  Solving for k, Initial residual = 0.00277877, Final residual = 1.82185e-06, No Iterations 3
bounding k, min: 1e-20 max: 1e-06 average: 1.21517e-08
ExecutionTime = 0.25 s  ClockTime = 0 s

Time = 0.12

Courant Number mean: 0 max: 0
smoothSolver:  Solving for Ux, Initial residual = 0, Final residual = 0, No Iterations 0
smoothSolver:  Solving for Uy, Initial residual = 0, Final residual = 0, No Iterations 0
GAMG:  Solving for p, Initial residual = 0, Final residual = 0, No Iterations 0
time step continuity errors : sum local = 0, global = 0, cumulative = 0
GAMG:  Solving for p, Initial residual = 0, Final residual = 0, No Iterations 0
time step continuity errors : sum local = 0, global = 0, cumulative = 0
smoothSolver:  Solving for k, Initial residual = 0.00265663, Final residual = 1.72996e-06, No Iterations 3
bounding k, min: 1e-20 max: 1e-06 average: 1.241e-08
ExecutionTime = 0.26 s  ClockTime = 0 s

Time = 0.125

Courant Number mean: 0 max: 0
smoothSolver:  Solving for Ux, Initial residual = 0, Final residual = 0, No Iterations 0
smoothSolver:  Solving for Uy, Initial residual = 0, Final residual = 0, No Iterations 0
GAMG:  Solving for p, Initial residual = 0, Final residual = 0, No Iterations 0
time step continuity errors : sum local = 0, global = 0, cumulative = 0
GAMG:  Solving for p, Initial residual = 0, Final residual = 0, No Iterations 0
time step continuity errors : sum local = 0, global = 0, cumulative = 0
smoothSolver:  Solving for k, Initial residual = 0.0025451, Final residual = 1.6463e-06, No Iterations 3
bounding k, min: 1e-20 max: 1e-06 average: 1.26622e-08
ExecutionTime = 0.27 s  ClockTime = 0 s

Time = 0.13

Courant Number mean: 0 max: 0
smoothSolver:  Solving for Ux, Initial residual = 0, Final residual = 0, No Iterations 0
smoothSolver:  Solving for Uy, Initial residual = 0, Final residual = 0, No Iterations 0
GAMG:  Solving for p, Initial residual = 0, Final residual = 0, No Iterations 0
time step continuity errors : sum local = 0, global = 0, cumulative = 0
GAMG:  Solving for p, Initial residual = 0, Final residual = 0, No Iterations 0
time step continuity errors : sum local = 0, global = 0, cumulative = 0
smoothSolver:  Solving for k, Initial residual = 0.00244286, Final residual = 1.56983e-06, No Iterations 3
bounding k, min: 1e-20 max: 1e-06 average: 1.29088e-08
ExecutionTime = 0.27 s  ClockTime = 0 s

Time = 0.135

Courant Number mean: 0 max: 0
smoothSolver:  Solving for Ux, Initial residual = 0, Final residual = 0, No Iterations 0
smoothSolver:  Solving for Uy, Initial residual = 0, Final residual = 0, No Iterations 0
GAMG:  Solving for p, Initial residual = 0, Final residual = 0, No Iterations 0
time step continuity errors : sum local = 0, global = 0, cumulative = 0
GAMG:  Solving for p, Initial residual = 0, Final residual = 0, No Iterations 0
time step continuity errors : sum local = 0, global = 0, cumulative = 0
smoothSolver:  Solving for k, Initial residual = 0.0023488, Final residual = 1.49969e-06, No Iterations 3
bounding k, min: 1e-20 max: 1e-06 average: 1.31499e-08
ExecutionTime = 0.28 s  ClockTime = 0 s

Time = 0.14

Courant Number mean: 0 max: 0
smoothSolver:  Solving for Ux, Initial residual = 0, Final residual = 0, No Iterations 0
smoothSolver:  Solving for Uy, Initial residual = 0, Final residual = 0, No Iterations 0
GAMG:  Solving for p, Initial residual = 0, Final residual = 0, No Iterations 0
time step continuity errors : sum local = 0, global = 0, cumulative = 0
GAMG:  Solving for p, Initial residual = 0, Final residual = 0, No Iterations 0
time step continuity errors : sum local = 0, global = 0, cumulative = 0
smoothSolver:  Solving for k, Initial residual = 0.00226164, Final residual = 1.43493e-06, No Iterations 3
bounding k, min: 1e-20 max: 1e-06 average: 1.3386e-08
ExecutionTime = 0.29 s  ClockTime = 0 s

Time = 0.145

Courant Number mean: 0 max: 0
smoothSolver:  Solving for Ux, Initial residual = 0, Final residual = 0, No Iterations 0
smoothSolver:  Solving for Uy, Initial residual = 0, Final residual = 0, No Iterations 0
GAMG:  Solving for p, Initial residual = 0, Final residual = 0, No Iterations 0
time step continuity errors : sum local = 0, global = 0, cumulative = 0
GAMG:  Solving for p, Initial residual = 0, Final residual = 0, No Iterations 0
time step continuity errors : sum local = 0, global = 0, cumulative = 0
smoothSolver:  Solving for k, Initial residual = 0.00218064, Final residual = 1.37495e-06, No Iterations 3
bounding k, min: 1e-20 max: 1e-06 average: 1.36173e-08
ExecutionTime = 0.3 s  ClockTime = 0 s

Time = 0.15

Courant Number mean: 0 max: 0
smoothSolver:  Solving for Ux, Initial residual = 0, Final residual = 0, No Iterations 0
smoothSolver:  Solving for Uy, Initial residual = 0, Final residual = 0, No Iterations 0
GAMG:  Solving for p, Initial residual = 0, Final residual = 0, No Iterations 0
time step continuity errors : sum local = 0, global = 0, cumulative = 0
GAMG:  Solving for p, Initial residual = 0, Final residual = 0, No Iterations 0
time step continuity errors : sum local = 0, global = 0, cumulative = 0
smoothSolver:  Solving for k, Initial residual = 0.00210529, Final residual = 1.31935e-06, No Iterations 3
bounding k, min: 1e-20 max: 1e-06 average: 1.38441e-08
ExecutionTime = 0.31 s  ClockTime = 0 s

Time = 0.155

Courant Number mean: 0 max: 0
smoothSolver:  Solving for Ux, Initial residual = 0, Final residual = 0, No Iterations 0
smoothSolver:  Solving for Uy, Initial residual = 0, Final residual = 0, No Iterations 0
GAMG:  Solving for p, Initial residual = 0, Final residual = 0, No Iterations 0
time step continuity errors : sum local = 0, global = 0, cumulative = 0
GAMG:  Solving for p, Initial residual = 0, Final residual = 0, No Iterations 0
time step continuity errors : sum local = 0, global = 0, cumulative = 0
smoothSolver:  Solving for k, Initial residual = 0.00203513, Final residual = 1.26772e-06, No Iterations 3
bounding k, min: 1e-20 max: 1e-06 average: 1.40665e-08
ExecutionTime = 0.31 s  ClockTime = 0 s

Time = 0.16

Courant Number mean: 0 max: 0
smoothSolver:  Solving for Ux, Initial residual = 0, Final residual = 0, No Iterations 0
smoothSolver:  Solving for Uy, Initial residual = 0, Final residual = 0, No Iterations 0
GAMG:  Solving for p, Initial residual = 0, Final residual = 0, No Iterations 0
time step continuity errors : sum local = 0, global = 0, cumulative = 0
GAMG:  Solving for p, Initial residual = 0, Final residual = 0, No Iterations 0
time step continuity errors : sum local = 0, global = 0, cumulative = 0
smoothSolver:  Solving for k, Initial residual = 0.00196963, Final residual = 1.21968e-06, No Iterations 3
bounding k, min: 1e-20 max: 1e-06 average: 1.42849e-08
ExecutionTime = 0.32 s  ClockTime = 0 s

Time = 0.165

Courant Number mean: 0 max: 0
smoothSolver:  Solving for Ux, Initial residual = 0, Final residual = 0, No Iterations 0
smoothSolver:  Solving for Uy, Initial residual = 0, Final residual = 0, No Iterations 0
GAMG:  Solving for p, Initial residual = 0, Final residual = 0, No Iterations 0
time step continuity errors : sum local = 0, global = 0, cumulative = 0
GAMG:  Solving for p, Initial residual = 0, Final residual = 0, No Iterations 0
time step continuity errors : sum local = 0, global = 0, cumulative = 0
smoothSolver:  Solving for k, Initial residual = 0.00190835, Final residual = 1.17486e-06, No Iterations 3
bounding k, min: 1e-20 max: 1e-06 average: 1.44994e-08
ExecutionTime = 0.33 s  ClockTime = 0 s

Time = 0.17

Courant Number mean: 0 max: 0
smoothSolver:  Solving for Ux, Initial residual = 0, Final residual = 0, No Iterations 0
smoothSolver:  Solving for Uy, Initial residual = 0, Final residual = 0, No Iterations 0
GAMG:  Solving for p, Initial residual = 0, Final residual = 0, No Iterations 0
time step continuity errors : sum local = 0, global = 0, cumulative = 0
GAMG:  Solving for p, Initial residual = 0, Final residual = 0, No Iterations 0
time step continuity errors : sum local = 0, global = 0, cumulative = 0
smoothSolver:  Solving for k, Initial residual = 0.00185089, Final residual = 1.13297e-06, No Iterations 3
bounding k, min: 1e-20 max: 1e-06 average: 1.47102e-08
ExecutionTime = 0.34 s  ClockTime = 0 s

Time = 0.175

Courant Number mean: 0 max: 0
smoothSolver:  Solving for Ux, Initial residual = 0, Final residual = 0, No Iterations 0
smoothSolver:  Solving for Uy, Initial residual = 0, Final residual = 0, No Iterations 0
GAMG:  Solving for p, Initial residual = 0, Final residual = 0, No Iterations 0
time step continuity errors : sum local = 0, global = 0, cumulative = 0
GAMG:  Solving for p, Initial residual = 0, Final residual = 0, No Iterations 0
time step continuity errors : sum local = 0, global = 0, cumulative = 0
smoothSolver:  Solving for k, Initial residual = 0.00179691, Final residual = 1.09373e-06, No Iterations 3
bounding k, min: 1e-20 max: 1e-06 average: 1.49175e-08
ExecutionTime = 0.34 s  ClockTime = 0 s

Time = 0.18

Courant Number mean: 0 max: 0
smoothSolver:  Solving for Ux, Initial residual = 0, Final residual = 0, No Iterations 0
smoothSolver:  Solving for Uy, Initial residual = 0, Final residual = 0, No Iterations 0
GAMG:  Solving for p, Initial residual = 0, Final residual = 0, No Iterations 0
time step continuity errors : sum local = 0, global = 0, cumulative = 0
GAMG:  Solving for p, Initial residual = 0, Final residual = 0, No Iterations 0
time step continuity errors : sum local = 0, global = 0, cumulative = 0
smoothSolver:  Solving for k, Initial residual = 0.0017461, Final residual = 1.0569e-06, No Iterations 3
bounding k, min: 1e-20 max: 1e-06 average: 1.51213e-08
ExecutionTime = 0.35 s  ClockTime = 0 s

Time = 0.185

Courant Number mean: 0 max: 0
smoothSolver:  Solving for Ux, Initial residual = 0, Final residual = 0, No Iterations 0
smoothSolver:  Solving for Uy, Initial residual = 0, Final residual = 0, No Iterations 0
GAMG:  Solving for p, Initial residual = 0, Final residual = 0, No Iterations 0
time step continuity errors : sum local = 0, global = 0, cumulative = 0
GAMG:  Solving for p, Initial residual = 0, Final residual = 0, No Iterations 0
time step continuity errors : sum local = 0, global = 0, cumulative = 0
smoothSolver:  Solving for k, Initial residual = 0.00169819, Final residual = 1.02228e-06, No Iterations 3
bounding k, min: 1e-20 max: 1e-06 average: 1.5322e-08
ExecutionTime = 0.36 s  ClockTime = 0 s

Time = 0.19

Courant Number mean: 0 max: 0
smoothSolver:  Solving for Ux, Initial residual = 0, Final residual = 0, No Iterations 0
smoothSolver:  Solving for Uy, Initial residual = 0, Final residual = 0, No Iterations 0
GAMG:  Solving for p, Initial residual = 0, Final residual = 0, No Iterations 0
time step continuity errors : sum local = 0, global = 0, cumulative = 0
GAMG:  Solving for p, Initial residual = 0, Final residual = 0, No Iterations 0
time step continuity errors : sum local = 0, global = 0, cumulative = 0
smoothSolver:  Solving for k, Initial residual = 0.00165294, Final residual = 9.89678e-07, No Iterations 3
bounding k, min: 1e-20 max: 1e-06 average: 1.55196e-08
ExecutionTime = 0.37 s  ClockTime = 0 s

Time = 0.195

Courant Number mean: 0 max: 0
smoothSolver:  Solving for Ux, Initial residual = 0, Final residual = 0, No Iterations 0
smoothSolver:  Solving for Uy, Initial residual = 0, Final residual = 0, No Iterations 0
GAMG:  Solving for p, Initial residual = 0, Final residual = 0, No Iterations 0
time step continuity errors : sum local = 0, global = 0, cumulative = 0
GAMG:  Solving for p, Initial residual = 0, Final residual = 0, No Iterations 0
time step continuity errors : sum local = 0, global = 0, cumulative = 0
smoothSolver:  Solving for k, Initial residual = 0.00161014, Final residual = 9.58927e-07, No Iterations 3
bounding k, min: 1e-20 max: 1e-06 average: 1.57141e-08
ExecutionTime = 0.38 s  ClockTime = 0 s

Time = 0.2

Courant Number mean: 0 max: 0
smoothSolver:  Solving for Ux, Initial residual = 0, Final residual = 0, No Iterations 0
smoothSolver:  Solving for Uy, Initial residual = 0, Final residual = 0, No Iterations 0
GAMG:  Solving for p, Initial residual = 0, Final residual = 0, No Iterations 0
time step continuity errors : sum local = 0, global = 0, cumulative = 0
GAMG:  Solving for p, Initial residual = 0, Final residual = 0, No Iterations 0
time step continuity errors : sum local = 0, global = 0, cumulative = 0
smoothSolver:  Solving for k, Initial residual = 0.00156946, Final residual = 9.29801e-07, No Iterations 3
bounding k, min: 1e-20 max: 1e-06 average: 1.59059e-08
ExecutionTime = 0.38 s  ClockTime = 0 s

Time = 0.205

Courant Number mean: 0 max: 0
smoothSolver:  Solving for Ux, Initial residual = 0, Final residual = 0, No Iterations 0
smoothSolver:  Solving for Uy, Initial residual = 0, Final residual = 0, No Iterations 0
GAMG:  Solving for p, Initial residual = 0, Final residual = 0, No Iterations 0
time step continuity errors : sum local = 0, global = 0, cumulative = 0
GAMG:  Solving for p, Initial residual = 0, Final residual = 0, No Iterations 0
time step continuity errors : sum local = 0, global = 0, cumulative = 0
smoothSolver:  Solving for k, Initial residual = 0.00153073, Final residual = 9.02161e-07, No Iterations 3
bounding k, min: 1e-20 max: 1e-06 average: 1.60948e-08
ExecutionTime = 0.39 s  ClockTime = 0 s

Time = 0.21

Courant Number mean: 0 max: 0
smoothSolver:  Solving for Ux, Initial residual = 0, Final residual = 0, No Iterations 0
smoothSolver:  Solving for Uy, Initial residual = 0, Final residual = 0, No Iterations 0
GAMG:  Solving for p, Initial residual = 0, Final residual = 0, No Iterations 0
time step continuity errors : sum local = 0, global = 0, cumulative = 0
GAMG:  Solving for p, Initial residual = 0, Final residual = 0, No Iterations 0
time step continuity errors : sum local = 0, global = 0, cumulative = 0
smoothSolver:  Solving for k, Initial residual = 0.00149384, Final residual = 8.75929e-07, No Iterations 3
bounding k, min: 1e-20 max: 1e-06 average: 1.62812e-08
ExecutionTime = 0.4 s  ClockTime = 0 s

Time = 0.215

Courant Number mean: 0 max: 0
smoothSolver:  Solving for Ux, Initial residual = 0, Final residual = 0, No Iterations 0
smoothSolver:  Solving for Uy, Initial residual = 0, Final residual = 0, No Iterations 0
GAMG:  Solving for p, Initial residual = 0, Final residual = 0, No Iterations 0
time step continuity errors : sum local = 0, global = 0, cumulative = 0
GAMG:  Solving for p, Initial residual = 0, Final residual = 0, No Iterations 0
time step continuity errors : sum local = 0, global = 0, cumulative = 0
smoothSolver:  Solving for k, Initial residual = 0.00145875, Final residual = 8.51045e-07, No Iterations 3
bounding k, min: 1e-20 max: 1e-06 average: 1.6465e-08
ExecutionTime = 0.41 s  ClockTime = 0 s

Time = 0.22

Courant Number mean: 0 max: 0
smoothSolver:  Solving for Ux, Initial residual = 0, Final residual = 0, No Iterations 0
smoothSolver:  Solving for Uy, Initial residual = 0, Final residual = 0, No Iterations 0
GAMG:  Solving for p, Initial residual = 0, Final residual = 0, No Iterations 0
time step continuity errors : sum local = 0, global = 0, cumulative = 0
GAMG:  Solving for p, Initial residual = 0, Final residual = 0, No Iterations 0
time step continuity errors : sum local = 0, global = 0, cumulative = 0
smoothSolver:  Solving for k, Initial residual = 0.00142532, Final residual = 9.85467e-06, No Iterations 2
bounding k, min: 1e-20 max: 1e-06 average: 1.66449e-08
ExecutionTime = 0.41 s  ClockTime = 0 s

Time = 0.225

Courant Number mean: 0 max: 0
smoothSolver:  Solving for Ux, Initial residual = 0, Final residual = 0, No Iterations 0
smoothSolver:  Solving for Uy, Initial residual = 0, Final residual = 0, No Iterations 0
GAMG:  Solving for p, Initial residual = 0, Final residual = 0, No Iterations 0
time step continuity errors : sum local = 0, global = 0, cumulative = 0
GAMG:  Solving for p, Initial residual = 0, Final residual = 0, No Iterations 0
time step continuity errors : sum local = 0, global = 0, cumulative = 0
smoothSolver:  Solving for k, Initial residual = 0.00139059, Final residual = 9.58085e-06, No Iterations 2
bounding k, min: 1e-20 max: 1e-06 average: 1.68221e-08
ExecutionTime = 0.42 s  ClockTime = 0 s

Time = 0.23

Courant Number mean: 0 max: 0
smoothSolver:  Solving for Ux, Initial residual = 0, Final residual = 0, No Iterations 0
smoothSolver:  Solving for Uy, Initial residual = 0, Final residual = 0, No Iterations 0
GAMG:  Solving for p, Initial residual = 0, Final residual = 0, No Iterations 0
time step continuity errors : sum local = 0, global = 0, cumulative = 0
GAMG:  Solving for p, Initial residual = 0, Final residual = 0, No Iterations 0
time step continuity errors : sum local = 0, global = 0, cumulative = 0
smoothSolver:  Solving for k, Initial residual = 0.00135941, Final residual = 9.33414e-06, No Iterations 2
bounding k, min: 1e-20 max: 1e-06 average: 1.69969e-08
ExecutionTime = 0.43 s  ClockTime = 0 s

Time = 0.235

Courant Number mean: 0 max: 0
smoothSolver:  Solving for Ux, Initial residual = 0, Final residual = 0, No Iterations 0
smoothSolver:  Solving for Uy, Initial residual = 0, Final residual = 0, No Iterations 0
GAMG:  Solving for p, Initial residual = 0, Final residual = 0, No Iterations 0
time step continuity errors : sum local = 0, global = 0, cumulative = 0
GAMG:  Solving for p, Initial residual = 0, Final residual = 0, No Iterations 0
time step continuity errors : sum local = 0, global = 0, cumulative = 0
smoothSolver:  Solving for k, Initial residual = 0.00133027, Final residual = 9.10345e-06, No Iterations 2
bounding k, min: 1e-20 max: 1e-06 average: 1.71695e-08
ExecutionTime = 0.43 s  ClockTime = 0 s

Time = 0.24

Courant Number mean: 0 max: 0
smoothSolver:  Solving for Ux, Initial residual = 0, Final residual = 0, No Iterations 0
smoothSolver:  Solving for Uy, Initial residual = 0, Final residual = 0, No Iterations 0
GAMG:  Solving for p, Initial residual = 0, Final residual = 0, No Iterations 0
time step continuity errors : sum local = 0, global = 0, cumulative = 0
GAMG:  Solving for p, Initial residual = 0, Final residual = 0, No Iterations 0
time step continuity errors : sum local = 0, global = 0, cumulative = 0
smoothSolver:  Solving for k, Initial residual = 0.0013026, Final residual = 8.8847e-06, No Iterations 2
bounding k, min: 1e-20 max: 1e-06 average: 1.73399e-08
ExecutionTime = 0.44 s  ClockTime = 0 s

Time = 0.245

Courant Number mean: 0 max: 0
smoothSolver:  Solving for Ux, Initial residual = 0, Final residual = 0, No Iterations 0
smoothSolver:  Solving for Uy, Initial residual = 0, Final residual = 0, No Iterations 0
GAMG:  Solving for p, Initial residual = 0, Final residual = 0, No Iterations 0
time step continuity errors : sum local = 0, global = 0, cumulative = 0
GAMG:  Solving for p, Initial residual = 0, Final residual = 0, No Iterations 0
time step continuity errors : sum local = 0, global = 0, cumulative = 0
smoothSolver:  Solving for k, Initial residual = 0.00127618, Final residual = 8.67613e-06, No Iterations 2
bounding k, min: 1e-20 max: 1e-06 average: 1.75083e-08
ExecutionTime = 0.45 s  ClockTime = 0 s

Time = 0.25

Courant Number mean: 0 max: 0
smoothSolver:  Solving for Ux, Initial residual = 0, Final residual = 0, No Iterations 0
smoothSolver:  Solving for Uy, Initial residual = 0, Final residual = 0, No Iterations 0
GAMG:  Solving for p, Initial residual = 0, Final residual = 0, No Iterations 0
time step continuity errors : sum local = 0, global = 0, cumulative = 0
GAMG:  Solving for p, Initial residual = 0, Final residual = 0, No Iterations 0
time step continuity errors : sum local = 0, global = 0, cumulative = 0
smoothSolver:  Solving for k, Initial residual = 0.00125088, Final residual = 8.47674e-06, No Iterations 2
bounding k, min: 1e-20 max: 1e-06 average: 1.76748e-08
ExecutionTime = 0.46 s  ClockTime = 0 s

Time = 0.255

Courant Number mean: 0 max: 0
smoothSolver:  Solving for Ux, Initial residual = 0, Final residual = 0, No Iterations 0
smoothSolver:  Solving for Uy, Initial residual = 0, Final residual = 0, No Iterations 0
GAMG:  Solving for p, Initial residual = 0, Final residual = 0, No Iterations 0
time step continuity errors : sum local = 0, global = 0, cumulative = 0
GAMG:  Solving for p, Initial residual = 0, Final residual = 0, No Iterations 0
time step continuity errors : sum local = 0, global = 0, cumulative = 0
smoothSolver:  Solving for k, Initial residual = 0.00122662, Final residual = 8.28587e-06, No Iterations 2
bounding k, min: 1e-20 max: 1e-06 average: 1.78393e-08
ExecutionTime = 0.46 s  ClockTime = 0 s

Time = 0.26

Courant Number mean: 0 max: 0
smoothSolver:  Solving for Ux, Initial residual = 0, Final residual = 0, No Iterations 0
smoothSolver:  Solving for Uy, Initial residual = 0, Final residual = 0, No Iterations 0
GAMG:  Solving for p, Initial residual = 0, Final residual = 0, No Iterations 0
time step continuity errors : sum local = 0, global = 0, cumulative = 0
GAMG:  Solving for p, Initial residual = 0, Final residual = 0, No Iterations 0
time step continuity errors : sum local = 0, global = 0, cumulative = 0
smoothSolver:  Solving for k, Initial residual = 0.00120333, Final residual = 8.10295e-06, No Iterations 2
bounding k, min: 1e-20 max: 1e-06 average: 1.8002e-08
ExecutionTime = 0.47 s  ClockTime = 0 s

Time = 0.265

Courant Number mean: 0 max: 0
smoothSolver:  Solving for Ux, Initial residual = 0, Final residual = 0, No Iterations 0
smoothSolver:  Solving for Uy, Initial residual = 0, Final residual = 0, No Iterations 0
GAMG:  Solving for p, Initial residual = 0, Final residual = 0, No Iterations 0
time step continuity errors : sum local = 0, global = 0, cumulative = 0
GAMG:  Solving for p, Initial residual = 0, Final residual = 0, No Iterations 0
time step continuity errors : sum local = 0, global = 0, cumulative = 0
smoothSolver:  Solving for k, Initial residual = 0.00118095, Final residual = 7.9275e-06, No Iterations 2
bounding k, min: 1e-20 max: 1e-06 average: 1.81629e-08
ExecutionTime = 0.48 s  ClockTime = 0 s

Time = 0.27

Courant Number mean: 0 max: 0
smoothSolver:  Solving for Ux, Initial residual = 0, Final residual = 0, No Iterations 0
smoothSolver:  Solving for Uy, Initial residual = 0, Final residual = 0, No Iterations 0
GAMG:  Solving for p, Initial residual = 0, Final residual = 0, No Iterations 0
time step continuity errors : sum local = 0, global = 0, cumulative = 0
GAMG:  Solving for p, Initial residual = 0, Final residual = 0, No Iterations 0
time step continuity errors : sum local = 0, global = 0, cumulative = 0
smoothSolver:  Solving for k, Initial residual = 0.00115943, Final residual = 7.75907e-06, No Iterations 2
bounding k, min: 1e-20 max: 1e-06 average: 1.83221e-08
ExecutionTime = 0.49 s  ClockTime = 0 s

Time = 0.275

Courant Number mean: 0 max: 0
smoothSolver:  Solving for Ux, Initial residual = 0, Final residual = 0, No Iterations 0
smoothSolver:  Solving for Uy, Initial residual = 0, Final residual = 0, No Iterations 0
GAMG:  Solving for p, Initial residual = 0, Final residual = 0, No Iterations 0
time step continuity errors : sum local = 0, global = 0, cumulative = 0
GAMG:  Solving for p, Initial residual = 0, Final residual = 0, No Iterations 0
time step continuity errors : sum local = 0, global = 0, cumulative = 0
smoothSolver:  Solving for k, Initial residual = 0.00113869, Final residual = 7.59704e-06, No Iterations 2
bounding k, min: 1e-20 max: 1e-06 average: 1.84795e-08
ExecutionTime = 0.49 s  ClockTime = 0 s

Time = 0.28

Courant Number mean: 0 max: 0
smoothSolver:  Solving for Ux, Initial residual = 0, Final residual = 0, No Iterations 0
smoothSolver:  Solving for Uy, Initial residual = 0, Final residual = 0, No Iterations 0
GAMG:  Solving for p, Initial residual = 0, Final residual = 0, No Iterations 0
time step continuity errors : sum local = 0, global = 0, cumulative = 0
GAMG:  Solving for p, Initial residual = 0, Final residual = 0, No Iterations 0
time step continuity errors : sum local = 0, global = 0, cumulative = 0
smoothSolver:  Solving for k, Initial residual = 0.00111865, Final residual = 7.44077e-06, No Iterations 2
bounding k, min: 1e-20 max: 1e-06 average: 1.86353e-08
ExecutionTime = 0.5 s  ClockTime = 0 s

Time = 0.285

Courant Number mean: 0 max: 0
smoothSolver:  Solving for Ux, Initial residual = 0, Final residual = 0, No Iterations 0
smoothSolver:  Solving for Uy, Initial residual = 0, Final residual = 0, No Iterations 0
GAMG:  Solving for p, Initial residual = 0, Final residual = 0, No Iterations 0
time step continuity errors : sum local = 0, global = 0, cumulative = 0
GAMG:  Solving for p, Initial residual = 0, Final residual = 0, No Iterations 0
time step continuity errors : sum local = 0, global = 0, cumulative = 0
smoothSolver:  Solving for k, Initial residual = 0.00109925, Final residual = 7.28991e-06, No Iterations 2
bounding k, min: 1e-20 max: 1e-06 average: 1.87895e-08
ExecutionTime = 0.51 s  ClockTime = 0 s

Time = 0.29

Courant Number mean: 0 max: 0
smoothSolver:  Solving for Ux, Initial residual = 0, Final residual = 0, No Iterations 0
smoothSolver:  Solving for Uy, Initial residual = 0, Final residual = 0, No Iterations 0
GAMG:  Solving for p, Initial residual = 0, Final residual = 0, No Iterations 0
time step continuity errors : sum local = 0, global = 0, cumulative = 0
GAMG:  Solving for p, Initial residual = 0, Final residual = 0, No Iterations 0
time step continuity errors : sum local = 0, global = 0, cumulative = 0
smoothSolver:  Solving for k, Initial residual = 0.00108054, Final residual = 7.14464e-06, No Iterations 2
bounding k, min: 1e-20 max: 1e-06 average: 1.89422e-08
ExecutionTime = 0.52 s  ClockTime = 0 s

Time = 0.295

Courant Number mean: 0 max: 0
smoothSolver:  Solving for Ux, Initial residual = 0, Final residual = 0, No Iterations 0
smoothSolver:  Solving for Uy, Initial residual = 0, Final residual = 0, No Iterations 0
GAMG:  Solving for p, Initial residual = 0, Final residual = 0, No Iterations 0
time step continuity errors : sum local = 0, global = 0, cumulative = 0
GAMG:  Solving for p, Initial residual = 0, Final residual = 0, No Iterations 0
time step continuity errors : sum local = 0, global = 0, cumulative = 0
smoothSolver:  Solving for k, Initial residual = 0.00106249, Final residual = 7.00467e-06, No Iterations 2
bounding k, min: 1e-20 max: 1e-06 average: 1.90933e-08
ExecutionTime = 0.52 s  ClockTime = 0 s

Time = 0.3

Courant Number mean: 0 max: 0
smoothSolver:  Solving for Ux, Initial residual = 0, Final residual = 0, No Iterations 0
smoothSolver:  Solving for Uy, Initial residual = 0, Final residual = 0, No Iterations 0
GAMG:  Solving for p, Initial residual = 0, Final residual = 0, No Iterations 0
time step continuity errors : sum local = 0, global = 0, cumulative = 0
GAMG:  Solving for p, Initial residual = 0, Final residual = 0, No Iterations 0
time step continuity errors : sum local = 0, global = 0, cumulative = 0
smoothSolver:  Solving for k, Initial residual = 0.00104505, Final residual = 6.86972e-06, No Iterations 2
bounding k, min: 1e-20 max: 1e-06 average: 1.9243e-08
ExecutionTime = 0.53 s  ClockTime = 0 s

Time = 0.305

Courant Number mean: 0 max: 0
smoothSolver:  Solving for Ux, Initial residual = 0, Final residual = 0, No Iterations 0
smoothSolver:  Solving for Uy, Initial residual = 0, Final residual = 0, No Iterations 0
GAMG:  Solving for p, Initial residual = 0, Final residual = 0, No Iterations 0
time step continuity errors : sum local = 0, global = 0, cumulative = 0
GAMG:  Solving for p, Initial residual = 0, Final residual = 0, No Iterations 0
time step continuity errors : sum local = 0, global = 0, cumulative = 0
smoothSolver:  Solving for k, Initial residual = 0.0010282, Final residual = 6.73954e-06, No Iterations 2
bounding k, min: 1e-20 max: 1e-06 average: 1.93912e-08
ExecutionTime = 0.54 s  ClockTime = 0 s

Time = 0.31

Courant Number mean: 0 max: 0
smoothSolver:  Solving for Ux, Initial residual = 0, Final residual = 0, No Iterations 0
smoothSolver:  Solving for Uy, Initial residual = 0, Final residual = 0, No Iterations 0
GAMG:  Solving for p, Initial residual = 0, Final residual = 0, No Iterations 0
time step continuity errors : sum local = 0, global = 0, cumulative = 0
GAMG:  Solving for p, Initial residual = 0, Final residual = 0, No Iterations 0
time step continuity errors : sum local = 0, global = 0, cumulative = 0
smoothSolver:  Solving for k, Initial residual = 0.00101191, Final residual = 6.61387e-06, No Iterations 2
bounding k, min: 1e-20 max: 1e-06 average: 1.9538e-08
ExecutionTime = 0.55 s  ClockTime = 0 s

Time = 0.315

Courant Number mean: 0 max: 0
smoothSolver:  Solving for Ux, Initial residual = 0, Final residual = 0, No Iterations 0
smoothSolver:  Solving for Uy, Initial residual = 0, Final residual = 0, No Iterations 0
GAMG:  Solving for p, Initial residual = 0, Final residual = 0, No Iterations 0
time step continuity errors : sum local = 0, global = 0, cumulative = 0
GAMG:  Solving for p, Initial residual = 0, Final residual = 0, No Iterations 0
time step continuity errors : sum local = 0, global = 0, cumulative = 0
smoothSolver:  Solving for k, Initial residual = 0.000996154, Final residual = 6.4925e-06, No Iterations 2
bounding k, min: 1e-20 max: 1e-06 average: 1.96835e-08
ExecutionTime = 0.55 s  ClockTime = 0 s

Time = 0.32

Courant Number mean: 0 max: 0
smoothSolver:  Solving for Ux, Initial residual = 0, Final residual = 0, No Iterations 0
smoothSolver:  Solving for Uy, Initial residual = 0, Final residual = 0, No Iterations 0
GAMG:  Solving for p, Initial residual = 0, Final residual = 0, No Iterations 0
time step continuity errors : sum local = 0, global = 0, cumulative = 0
GAMG:  Solving for p, Initial residual = 0, Final residual = 0, No Iterations 0
time step continuity errors : sum local = 0, global = 0, cumulative = 0
smoothSolver:  Solving for k, Initial residual = 0.000980901, Final residual = 6.3752e-06, No Iterations 2
bounding k, min: 1e-20 max: 1e-06 average: 1.98276e-08
ExecutionTime = 0.56 s  ClockTime = 0 s

Time = 0.325

Courant Number mean: 0 max: 0
smoothSolver:  Solving for Ux, Initial residual = 0, Final residual = 0, No Iterations 0
smoothSolver:  Solving for Uy, Initial residual = 0, Final residual = 0, No Iterations 0
GAMG:  Solving for p, Initial residual = 0, Final residual = 0, No Iterations 0
time step continuity errors : sum local = 0, global = 0, cumulative = 0
GAMG:  Solving for p, Initial residual = 0, Final residual = 0, No Iterations 0
time step continuity errors : sum local = 0, global = 0, cumulative = 0
smoothSolver:  Solving for k, Initial residual = 0.00096613, Final residual = 6.2618e-06, No Iterations 2
bounding k, min: 1e-20 max: 1e-06 average: 1.99704e-08
ExecutionTime = 0.57 s  ClockTime = 0 s

Time = 0.33

Courant Number mean: 0 max: 0
smoothSolver:  Solving for Ux, Initial residual = 0, Final residual = 0, No Iterations 0
smoothSolver:  Solving for Uy, Initial residual = 0, Final residual = 0, No Iterations 0
GAMG:  Solving for p, Initial residual = 0, Final residual = 0, No Iterations 0
time step continuity errors : sum local = 0, global = 0, cumulative = 0
GAMG:  Solving for p, Initial residual = 0, Final residual = 0, No Iterations 0
time step continuity errors : sum local = 0, global = 0, cumulative = 0
smoothSolver:  Solving for k, Initial residual = 0.000951817, Final residual = 6.15209e-06, No Iterations 2
bounding k, min: 1e-20 max: 1e-06 average: 2.0112e-08
ExecutionTime = 0.58 s  ClockTime = 0 s

Time = 0.335

Courant Number mean: 0 max: 0
smoothSolver:  Solving for Ux, Initial residual = 0, Final residual = 0, No Iterations 0
smoothSolver:  Solving for Uy, Initial residual = 0, Final residual = 0, No Iterations 0
GAMG:  Solving for p, Initial residual = 0, Final residual = 0, No Iterations 0
time step continuity errors : sum local = 0, global = 0, cumulative = 0
GAMG:  Solving for p, Initial residual = 0, Final residual = 0, No Iterations 0
time step continuity errors : sum local = 0, global = 0, cumulative = 0
smoothSolver:  Solving for k, Initial residual = 0.000937943, Final residual = 6.04591e-06, No Iterations 2
bounding k, min: 1e-20 max: 1e-06 average: 2.02523e-08
ExecutionTime = 0.58 s  ClockTime = 0 s

Time = 0.34

Courant Number mean: 0 max: 0
smoothSolver:  Solving for Ux, Initial residual = 0, Final residual = 0, No Iterations 0
smoothSolver:  Solving for Uy, Initial residual = 0, Final residual = 0, No Iterations 0
GAMG:  Solving for p, Initial residual = 0, Final residual = 0, No Iterations 0
time step continuity errors : sum local = 0, global = 0, cumulative = 0
GAMG:  Solving for p, Initial residual = 0, Final residual = 0, No Iterations 0
time step continuity errors : sum local = 0, global = 0, cumulative = 0
smoothSolver:  Solving for k, Initial residual = 0.000924488, Final residual = 5.94308e-06, No Iterations 2
bounding k, min: 1e-20 max: 1e-06 average: 2.03914e-08
ExecutionTime = 0.59 s  ClockTime = 0 s

Time = 0.345

Courant Number mean: 0 max: 0
smoothSolver:  Solving for Ux, Initial residual = 0, Final residual = 0, No Iterations 0
smoothSolver:  Solving for Uy, Initial residual = 0, Final residual = 0, No Iterations 0
GAMG:  Solving for p, Initial residual = 0, Final residual = 0, No Iterations 0
time step continuity errors : sum local = 0, global = 0, cumulative = 0
GAMG:  Solving for p, Initial residual = 0, Final residual = 0, No Iterations 0
time step continuity errors : sum local = 0, global = 0, cumulative = 0
smoothSolver:  Solving for k, Initial residual = 0.000911432, Final residual = 5.84347e-06, No Iterations 2
bounding k, min: 1e-20 max: 1e-06 average: 2.05293e-08
ExecutionTime = 0.6 s  ClockTime = 0 s

Time = 0.35

Courant Number mean: 0 max: 0
smoothSolver:  Solving for Ux, Initial residual = 0, Final residual = 0, No Iterations 0
smoothSolver:  Solving for Uy, Initial residual = 0, Final residual = 0, No Iterations 0
GAMG:  Solving for p, Initial residual = 0, Final residual = 0, No Iterations 0
time step continuity errors : sum local = 0, global = 0, cumulative = 0
GAMG:  Solving for p, Initial residual = 0, Final residual = 0, No Iterations 0
time step continuity errors : sum local = 0, global = 0, cumulative = 0
smoothSolver:  Solving for k, Initial residual = 0.000898758, Final residual = 5.74692e-06, No Iterations 2
bounding k, min: 1e-20 max: 1e-06 average: 2.0666e-08
ExecutionTime = 0.6 s  ClockTime = 0 s

Time = 0.355

Courant Number mean: 0 max: 0
smoothSolver:  Solving for Ux, Initial residual = 0, Final residual = 0, No Iterations 0
smoothSolver:  Solving for Uy, Initial residual = 0, Final residual = 0, No Iterations 0
GAMG:  Solving for p, Initial residual = 0, Final residual = 0, No Iterations 0
time step continuity errors : sum local = 0, global = 0, cumulative = 0
GAMG:  Solving for p, Initial residual = 0, Final residual = 0, No Iterations 0
time step continuity errors : sum local = 0, global = 0, cumulative = 0
smoothSolver:  Solving for k, Initial residual = 0.000886451, Final residual = 5.6533e-06, No Iterations 2
bounding k, min: 1e-20 max: 1e-06 average: 2.08016e-08
ExecutionTime = 0.61 s  ClockTime = 0 s

Time = 0.36

Courant Number mean: 0 max: 0
smoothSolver:  Solving for Ux, Initial residual = 0, Final residual = 0, No Iterations 0
smoothSolver:  Solving for Uy, Initial residual = 0, Final residual = 0, No Iterations 0
GAMG:  Solving for p, Initial residual = 0, Final residual = 0, No Iterations 0
time step continuity errors : sum local = 0, global = 0, cumulative = 0
GAMG:  Solving for p, Initial residual = 0, Final residual = 0, No Iterations 0
time step continuity errors : sum local = 0, global = 0, cumulative = 0
smoothSolver:  Solving for k, Initial residual = 0.000874493, Final residual = 5.56248e-06, No Iterations 2
bounding k, min: 1e-20 max: 1e-06 average: 2.09361e-08
ExecutionTime = 0.62 s  ClockTime = 0 s

Time = 0.365

Courant Number mean: 0 max: 0
smoothSolver:  Solving for Ux, Initial residual = 0, Final residual = 0, No Iterations 0
smoothSolver:  Solving for Uy, Initial residual = 0, Final residual = 0, No Iterations 0
GAMG:  Solving for p, Initial residual = 0, Final residual = 0, No Iterations 0
time step continuity errors : sum local = 0, global = 0, cumulative = 0
GAMG:  Solving for p, Initial residual = 0, Final residual = 0, No Iterations 0
time step continuity errors : sum local = 0, global = 0, cumulative = 0
smoothSolver:  Solving for k, Initial residual = 0.000862872, Final residual = 5.47434e-06, No Iterations 2
bounding k, min: 1e-20 max: 1e-06 average: 2.10696e-08
ExecutionTime = 0.63 s  ClockTime = 0 s

Time = 0.37

Courant Number mean: 0 max: 0
smoothSolver:  Solving for Ux, Initial residual = 0, Final residual = 0, No Iterations 0
smoothSolver:  Solving for Uy, Initial residual = 0, Final residual = 0, No Iterations 0
GAMG:  Solving for p, Initial residual = 0, Final residual = 0, No Iterations 0
time step continuity errors : sum local = 0, global = 0, cumulative = 0
GAMG:  Solving for p, Initial residual = 0, Final residual = 0, No Iterations 0
time step continuity errors : sum local = 0, global = 0, cumulative = 0
smoothSolver:  Solving for k, Initial residual = 0.00085155, Final residual = 5.38863e-06, No Iterations 2
bounding k, min: 1e-20 max: 1e-06 average: 2.12019e-08
ExecutionTime = 0.64 s  ClockTime = 0 s

Time = 0.375

Courant Number mean: 0 max: 0
smoothSolver:  Solving for Ux, Initial residual = 0, Final residual = 0, No Iterations 0
smoothSolver:  Solving for Uy, Initial residual = 0, Final residual = 0, No Iterations 0
GAMG:  Solving for p, Initial residual = 0, Final residual = 0, No Iterations 0
time step continuity errors : sum local = 0, global = 0, cumulative = 0
GAMG:  Solving for p, Initial residual = 0, Final residual = 0, No Iterations 0
time step continuity errors : sum local = 0, global = 0, cumulative = 0
smoothSolver:  Solving for k, Initial residual = 0.000840497, Final residual = 5.30513e-06, No Iterations 2
bounding k, min: 1e-20 max: 1e-06 average: 2.13332e-08
ExecutionTime = 0.64 s  ClockTime = 0 s

Time = 0.38

Courant Number mean: 0 max: 0
smoothSolver:  Solving for Ux, Initial residual = 0, Final residual = 0, No Iterations 0
smoothSolver:  Solving for Uy, Initial residual = 0, Final residual = 0, No Iterations 0
GAMG:  Solving for p, Initial residual = 0, Final residual = 0, No Iterations 0
time step continuity errors : sum local = 0, global = 0, cumulative = 0
GAMG:  Solving for p, Initial residual = 0, Final residual = 0, No Iterations 0
time step continuity errors : sum local = 0, global = 0, cumulative = 0
smoothSolver:  Solving for k, Initial residual = 0.000829703, Final residual = 5.22375e-06, No Iterations 2
bounding k, min: 1e-20 max: 1e-06 average: 2.14635e-08
ExecutionTime = 0.65 s  ClockTime = 0 s

Time = 0.385

Courant Number mean: 0 max: 0
smoothSolver:  Solving for Ux, Initial residual = 0, Final residual = 0, No Iterations 0
smoothSolver:  Solving for Uy, Initial residual = 0, Final residual = 0, No Iterations 0
GAMG:  Solving for p, Initial residual = 0, Final residual = 0, No Iterations 0
time step continuity errors : sum local = 0, global = 0, cumulative = 0
GAMG:  Solving for p, Initial residual = 0, Final residual = 0, No Iterations 0
time step continuity errors : sum local = 0, global = 0, cumulative = 0
smoothSolver:  Solving for k, Initial residual = 0.000819194, Final residual = 5.14464e-06, No Iterations 2
bounding k, min: 1e-20 max: 1e-06 average: 2.15928e-08
ExecutionTime = 0.66 s  ClockTime = 0 s

Time = 0.39

Courant Number mean: 0 max: 0
smoothSolver:  Solving for Ux, Initial residual = 0, Final residual = 0, No Iterations 0
smoothSolver:  Solving for Uy, Initial residual = 0, Final residual = 0, No Iterations 0
GAMG:  Solving for p, Initial residual = 0, Final residual = 0, No Iterations 0
time step continuity errors : sum local = 0, global = 0, cumulative = 0
GAMG:  Solving for p, Initial residual = 0, Final residual = 0, No Iterations 0
time step continuity errors : sum local = 0, global = 0, cumulative = 0
smoothSolver:  Solving for k, Initial residual = 0.000808959, Final residual = 5.06772e-06, No Iterations 2
bounding k, min: 1e-20 max: 1e-06 average: 2.17211e-08
ExecutionTime = 0.67 s  ClockTime = 0 s

Time = 0.395

Courant Number mean: 0 max: 0
smoothSolver:  Solving for Ux, Initial residual = 0, Final residual = 0, No Iterations 0
smoothSolver:  Solving for Uy, Initial residual = 0, Final residual = 0, No Iterations 0
GAMG:  Solving for p, Initial residual = 0, Final residual = 0, No Iterations 0
time step continuity errors : sum local = 0, global = 0, cumulative = 0
GAMG:  Solving for p, Initial residual = 0, Final residual = 0, No Iterations 0
time step continuity errors : sum local = 0, global = 0, cumulative = 0
smoothSolver:  Solving for k, Initial residual = 0.000798988, Final residual = 4.99288e-06, No Iterations 2
bounding k, min: 1e-20 max: 1e-06 average: 2.18484e-08
ExecutionTime = 0.67 s  ClockTime = 0 s

Time = 0.4

Courant Number mean: 0 max: 0
smoothSolver:  Solving for Ux, Initial residual = 0, Final residual = 0, No Iterations 0
smoothSolver:  Solving for Uy, Initial residual = 0, Final residual = 0, No Iterations 0
GAMG:  Solving for p, Initial residual = 0, Final residual = 0, No Iterations 0
time step continuity errors : sum local = 0, global = 0, cumulative = 0
GAMG:  Solving for p, Initial residual = 0, Final residual = 0, No Iterations 0
time step continuity errors : sum local = 0, global = 0, cumulative = 0
smoothSolver:  Solving for k, Initial residual = 0.000789272, Final residual = 4.92006e-06, No Iterations 2
bounding k, min: 1e-20 max: 1e-06 average: 2.19748e-08
ExecutionTime = 0.68 s  ClockTime = 0 s

Time = 0.405

Courant Number mean: 0 max: 0
smoothSolver:  Solving for Ux, Initial residual = 0, Final residual = 0, No Iterations 0
smoothSolver:  Solving for Uy, Initial residual = 0, Final residual = 0, No Iterations 0
GAMG:  Solving for p, Initial residual = 0, Final residual = 0, No Iterations 0
time step continuity errors : sum local = 0, global = 0, cumulative = 0
GAMG:  Solving for p, Initial residual = 0, Final residual = 0, No Iterations 0
time step continuity errors : sum local = 0, global = 0, cumulative = 0
smoothSolver:  Solving for k, Initial residual = 0.000779799, Final residual = 4.84918e-06, No Iterations 2
bounding k, min: 1e-20 max: 1e-06 average: 2.21003e-08
ExecutionTime = 0.69 s  ClockTime = 0 s

Time = 0.41

Courant Number mean: 0 max: 0
smoothSolver:  Solving for Ux, Initial residual = 0, Final residual = 0, No Iterations 0
smoothSolver:  Solving for Uy, Initial residual = 0, Final residual = 0, No Iterations 0
GAMG:  Solving for p, Initial residual = 0, Final residual = 0, No Iterations 0
time step continuity errors : sum local = 0, global = 0, cumulative = 0
GAMG:  Solving for p, Initial residual = 0, Final residual = 0, No Iterations 0
time step continuity errors : sum local = 0, global = 0, cumulative = 0
smoothSolver:  Solving for k, Initial residual = 0.000770563, Final residual = 4.78015e-06, No Iterations 2
bounding k, min: 1e-20 max: 1e-06 average: 2.22249e-08
ExecutionTime = 0.7 s  ClockTime = 0 s

Time = 0.415

Courant Number mean: 0 max: 0
smoothSolver:  Solving for Ux, Initial residual = 0, Final residual = 0, No Iterations 0
smoothSolver:  Solving for Uy, Initial residual = 0, Final residual = 0, No Iterations 0
GAMG:  Solving for p, Initial residual = 0, Final residual = 0, No Iterations 0
time step continuity errors : sum local = 0, global = 0, cumulative = 0
GAMG:  Solving for p, Initial residual = 0, Final residual = 0, No Iterations 0
time step continuity errors : sum local = 0, global = 0, cumulative = 0
smoothSolver:  Solving for k, Initial residual = 0.000761553, Final residual = 4.71292e-06, No Iterations 2
bounding k, min: 1e-20 max: 1e-06 average: 2.23486e-08
ExecutionTime = 0.7 s  ClockTime = 0 s

Time = 0.42

Courant Number mean: 0 max: 0
smoothSolver:  Solving for Ux, Initial residual = 0, Final residual = 0, No Iterations 0
smoothSolver:  Solving for Uy, Initial residual = 0, Final residual = 0, No Iterations 0
GAMG:  Solving for p, Initial residual = 0, Final residual = 0, No Iterations 0
time step continuity errors : sum local = 0, global = 0, cumulative = 0
GAMG:  Solving for p, Initial residual = 0, Final residual = 0, No Iterations 0
time step continuity errors : sum local = 0, global = 0, cumulative = 0
smoothSolver:  Solving for k, Initial residual = 0.000752762, Final residual = 4.64741e-06, No Iterations 2
bounding k, min: 1e-20 max: 1e-06 average: 2.24714e-08
ExecutionTime = 0.71 s  ClockTime = 0 s

Time = 0.425

Courant Number mean: 0 max: 0
smoothSolver:  Solving for Ux, Initial residual = 0, Final residual = 0, No Iterations 0
smoothSolver:  Solving for Uy, Initial residual = 0, Final residual = 0, No Iterations 0
GAMG:  Solving for p, Initial residual = 0, Final residual = 0, No Iterations 0
time step continuity errors : sum local = 0, global = 0, cumulative = 0
GAMG:  Solving for p, Initial residual = 0, Final residual = 0, No Iterations 0
time step continuity errors : sum local = 0, global = 0, cumulative = 0
smoothSolver:  Solving for k, Initial residual = 0.000744181, Final residual = 4.58357e-06, No Iterations 2
bounding k, min: 1e-20 max: 1e-06 average: 2.25933e-08
ExecutionTime = 0.72 s  ClockTime = 0 s

Time = 0.43

Courant Number mean: 0 max: 0
smoothSolver:  Solving for Ux, Initial residual = 0, Final residual = 0, No Iterations 0
smoothSolver:  Solving for Uy, Initial residual = 0, Final residual = 0, No Iterations 0
GAMG:  Solving for p, Initial residual = 0, Final residual = 0, No Iterations 0
time step continuity errors : sum local = 0, global = 0, cumulative = 0
GAMG:  Solving for p, Initial residual = 0, Final residual = 0, No Iterations 0
time step continuity errors : sum local = 0, global = 0, cumulative = 0
smoothSolver:  Solving for k, Initial residual = 0.000735804, Final residual = 4.52132e-06, No Iterations 2
bounding k, min: 1e-20 max: 1e-06 average: 2.27144e-08
ExecutionTime = 0.73 s  ClockTime = 0 s

Time = 0.435

Courant Number mean: 0 max: 0
smoothSolver:  Solving for Ux, Initial residual = 0, Final residual = 0, No Iterations 0
smoothSolver:  Solving for Uy, Initial residual = 0, Final residual = 0, No Iterations 0
GAMG:  Solving for p, Initial residual = 0, Final residual = 0, No Iterations 0
time step continuity errors : sum local = 0, global = 0, cumulative = 0
GAMG:  Solving for p, Initial residual = 0, Final residual = 0, No Iterations 0
time step continuity errors : sum local = 0, global = 0, cumulative = 0
smoothSolver:  Solving for k, Initial residual = 0.000727623, Final residual = 4.46062e-06, No Iterations 2
bounding k, min: 1e-20 max: 1e-06 average: 2.28347e-08
ExecutionTime = 0.74 s  ClockTime = 0 s

Time = 0.44

Courant Number mean: 0 max: 0
smoothSolver:  Solving for Ux, Initial residual = 0, Final residual = 0, No Iterations 0
smoothSolver:  Solving for Uy, Initial residual = 0, Final residual = 0, No Iterations 0
GAMG:  Solving for p, Initial residual = 0, Final residual = 0, No Iterations 0
time step continuity errors : sum local = 0, global = 0, cumulative = 0
GAMG:  Solving for p, Initial residual = 0, Final residual = 0, No Iterations 0
time step continuity errors : sum local = 0, global = 0, cumulative = 0
smoothSolver:  Solving for k, Initial residual = 0.000719631, Final residual = 4.4014e-06, No Iterations 2
bounding k, min: 1e-20 max: 1e-06 average: 2.29542e-08
ExecutionTime = 0.74 s  ClockTime = 0 s

Time = 0.445

Courant Number mean: 0 max: 0
smoothSolver:  Solving for Ux, Initial residual = 0, Final residual = 0, No Iterations 0
smoothSolver:  Solving for Uy, Initial residual = 0, Final residual = 0, No Iterations 0
GAMG:  Solving for p, Initial residual = 0, Final residual = 0, No Iterations 0
time step continuity errors : sum local = 0, global = 0, cumulative = 0
GAMG:  Solving for p, Initial residual = 0, Final residual = 0, No Iterations 0
time step continuity errors : sum local = 0, global = 0, cumulative = 0
smoothSolver:  Solving for k, Initial residual = 0.000711823, Final residual = 4.34362e-06, No Iterations 2
bounding k, min: 1e-20 max: 1e-06 average: 2.30728e-08
ExecutionTime = 0.75 s  ClockTime = 0 s

Time = 0.45

Courant Number mean: 0 max: 0
smoothSolver:  Solving for Ux, Initial residual = 0, Final residual = 0, No Iterations 0
smoothSolver:  Solving for Uy, Initial residual = 0, Final residual = 0, No Iterations 0
GAMG:  Solving for p, Initial residual = 0, Final residual = 0, No Iterations 0
time step continuity errors : sum local = 0, global = 0, cumulative = 0
GAMG:  Solving for p, Initial residual = 0, Final residual = 0, No Iterations 0
time step continuity errors : sum local = 0, global = 0, cumulative = 0
smoothSolver:  Solving for k, Initial residual = 0.000704191, Final residual = 4.28723e-06, No Iterations 2
bounding k, min: 1e-20 max: 1e-06 average: 2.31907e-08
ExecutionTime = 0.76 s  ClockTime = 0 s

Time = 0.455

Courant Number mean: 0 max: 0
smoothSolver:  Solving for Ux, Initial residual = 0, Final residual = 0, No Iterations 0
smoothSolver:  Solving for Uy, Initial residual = 0, Final residual = 0, No Iterations 0
GAMG:  Solving for p, Initial residual = 0, Final residual = 0, No Iterations 0
time step continuity errors : sum local = 0, global = 0, cumulative = 0
GAMG:  Solving for p, Initial residual = 0, Final residual = 0, No Iterations 0
time step continuity errors : sum local = 0, global = 0, cumulative = 0
smoothSolver:  Solving for k, Initial residual = 0.00069673, Final residual = 4.23217e-06, No Iterations 2
bounding k, min: 1e-20 max: 1e-06 average: 2.33078e-08
ExecutionTime = 0.77 s  ClockTime = 0 s

Time = 0.46

Courant Number mean: 0 max: 0
smoothSolver:  Solving for Ux, Initial residual = 0, Final residual = 0, No Iterations 0
smoothSolver:  Solving for Uy, Initial residual = 0, Final residual = 0, No Iterations 0
GAMG:  Solving for p, Initial residual = 0, Final residual = 0, No Iterations 0
time step continuity errors : sum local = 0, global = 0, cumulative = 0
GAMG:  Solving for p, Initial residual = 0, Final residual = 0, No Iterations 0
time step continuity errors : sum local = 0, global = 0, cumulative = 0
smoothSolver:  Solving for k, Initial residual = 0.000689434, Final residual = 4.1784e-06, No Iterations 2
bounding k, min: 1e-20 max: 1e-06 average: 2.34242e-08
ExecutionTime = 0.78 s  ClockTime = 0 s

Time = 0.465

Courant Number mean: 0 max: 0
smoothSolver:  Solving for Ux, Initial residual = 0, Final residual = 0, No Iterations 0
smoothSolver:  Solving for Uy, Initial residual = 0, Final residual = 0, No Iterations 0
GAMG:  Solving for p, Initial residual = 0, Final residual = 0, No Iterations 0
time step continuity errors : sum local = 0, global = 0, cumulative = 0
GAMG:  Solving for p, Initial residual = 0, Final residual = 0, No Iterations 0
time step continuity errors : sum local = 0, global = 0, cumulative = 0
smoothSolver:  Solving for k, Initial residual = 0.000682298, Final residual = 4.12589e-06, No Iterations 2
bounding k, min: 1e-20 max: 1e-06 average: 2.35398e-08
ExecutionTime = 0.79 s  ClockTime = 0 s

Time = 0.47

Courant Number mean: 0 max: 0
smoothSolver:  Solving for Ux, Initial residual = 0, Final residual = 0, No Iterations 0
smoothSolver:  Solving for Uy, Initial residual = 0, Final residual = 0, No Iterations 0
GAMG:  Solving for p, Initial residual = 0, Final residual = 0, No Iterations 0
time step continuity errors : sum local = 0, global = 0, cumulative = 0
GAMG:  Solving for p, Initial residual = 0, Final residual = 0, No Iterations 0
time step continuity errors : sum local = 0, global = 0, cumulative = 0
smoothSolver:  Solving for k, Initial residual = 0.000675316, Final residual = 4.07457e-06, No Iterations 2
bounding k, min: 1e-20 max: 1e-06 average: 2.36547e-08
ExecutionTime = 0.8 s  ClockTime = 0 s

Time = 0.475

Courant Number mean: 0 max: 0
smoothSolver:  Solving for Ux, Initial residual = 0, Final residual = 0, No Iterations 0
smoothSolver:  Solving for Uy, Initial residual = 0, Final residual = 0, No Iterations 0
GAMG:  Solving for p, Initial residual = 0, Final residual = 0, No Iterations 0
time step continuity errors : sum local = 0, global = 0, cumulative = 0
GAMG:  Solving for p, Initial residual = 0, Final residual = 0, No Iterations 0
time step continuity errors : sum local = 0, global = 0, cumulative = 0
smoothSolver:  Solving for k, Initial residual = 0.000668484, Final residual = 4.02443e-06, No Iterations 2
bounding k, min: 1e-20 max: 1e-06 average: 2.37688e-08
ExecutionTime = 0.81 s  ClockTime = 1 s

Time = 0.48

Courant Number mean: 0 max: 0
smoothSolver:  Solving for Ux, Initial residual = 0, Final residual = 0, No Iterations 0
smoothSolver:  Solving for Uy, Initial residual = 0, Final residual = 0, No Iterations 0
GAMG:  Solving for p, Initial residual = 0, Final residual = 0, No Iterations 0
time step continuity errors : sum local = 0, global = 0, cumulative = 0
GAMG:  Solving for p, Initial residual = 0, Final residual = 0, No Iterations 0
time step continuity errors : sum local = 0, global = 0, cumulative = 0
smoothSolver:  Solving for k, Initial residual = 0.000661797, Final residual = 3.97541e-06, No Iterations 2
bounding k, min: 1e-20 max: 1e-06 average: 2.38822e-08
ExecutionTime = 0.82 s  ClockTime = 1 s

Time = 0.485

Courant Number mean: 0 max: 0
smoothSolver:  Solving for Ux, Initial residual = 0, Final residual = 0, No Iterations 0
smoothSolver:  Solving for Uy, Initial residual = 0, Final residual = 0, No Iterations 0
GAMG:  Solving for p, Initial residual = 0, Final residual = 0, No Iterations 0
time step continuity errors : sum local = 0, global = 0, cumulative = 0
GAMG:  Solving for p, Initial residual = 0, Final residual = 0, No Iterations 0
time step continuity errors : sum local = 0, global = 0, cumulative = 0
smoothSolver:  Solving for k, Initial residual = 0.000655233, Final residual = 3.92738e-06, No Iterations 2
bounding k, min: 1e-20 max: 1e-06 average: 2.3995e-08
ExecutionTime = 0.83 s  ClockTime = 1 s

Time = 0.49

Courant Number mean: 0 max: 0
smoothSolver:  Solving for Ux, Initial residual = 0, Final residual = 0, No Iterations 0
smoothSolver:  Solving for Uy, Initial residual = 0, Final residual = 0, No Iterations 0
GAMG:  Solving for p, Initial residual = 0, Final residual = 0, No Iterations 0
time step continuity errors : sum local = 0, global = 0, cumulative = 0
GAMG:  Solving for p, Initial residual = 0, Final residual = 0, No Iterations 0
time step continuity errors : sum local = 0, global = 0, cumulative = 0
smoothSolver:  Solving for k, Initial residual = 0.000648781, Final residual = 3.88027e-06, No Iterations 2
bounding k, min: 1e-20 max: 1e-06 average: 2.4107e-08
ExecutionTime = 0.84 s  ClockTime = 1 s

Time = 0.495

Courant Number mean: 0 max: 0
smoothSolver:  Solving for Ux, Initial residual = 0, Final residual = 0, No Iterations 0
smoothSolver:  Solving for Uy, Initial residual = 0, Final residual = 0, No Iterations 0
GAMG:  Solving for p, Initial residual = 0, Final residual = 0, No Iterations 0
time step continuity errors : sum local = 0, global = 0, cumulative = 0
GAMG:  Solving for p, Initial residual = 0, Final residual = 0, No Iterations 0
time step continuity errors : sum local = 0, global = 0, cumulative = 0
smoothSolver:  Solving for k, Initial residual = 0.000642445, Final residual = 3.83408e-06, No Iterations 2
bounding k, min: 1e-20 max: 1e-06 average: 2.42184e-08
ExecutionTime = 0.84 s  ClockTime = 1 s

Time = 0.5

Courant Number mean: 0 max: 0
smoothSolver:  Solving for Ux, Initial residual = 0, Final residual = 0, No Iterations 0
smoothSolver:  Solving for Uy, Initial residual = 0, Final residual = 0, No Iterations 0
GAMG:  Solving for p, Initial residual = 0, Final residual = 0, No Iterations 0
time step continuity errors : sum local = 0, global = 0, cumulative = 0
GAMG:  Solving for p, Initial residual = 0, Final residual = 0, No Iterations 0
time step continuity errors : sum local = 0, global = 0, cumulative = 0
smoothSolver:  Solving for k, Initial residual = 0.000636237, Final residual = 3.78889e-06, No Iterations 2
bounding k, min: 1e-20 max: 1e-06 average: 2.43291e-08
ExecutionTime = 0.85 s  ClockTime = 1 s

Time = 0.505

Courant Number mean: 0 max: 0
smoothSolver:  Solving for Ux, Initial residual = 0, Final residual = 0, No Iterations 0
smoothSolver:  Solving for Uy, Initial residual = 0, Final residual = 0, No Iterations 0
GAMG:  Solving for p, Initial residual = 0, Final residual = 0, No Iterations 0
time step continuity errors : sum local = 0, global = 0, cumulative = 0
GAMG:  Solving for p, Initial residual = 0, Final residual = 0, No Iterations 0
time step continuity errors : sum local = 0, global = 0, cumulative = 0
smoothSolver:  Solving for k, Initial residual = 0.000630153, Final residual = 3.74466e-06, No Iterations 2
bounding k, min: 1e-20 max: 1e-06 average: 2.44392e-08
ExecutionTime = 0.86 s  ClockTime = 1 s

Time = 0.51

Courant Number mean: 0 max: 0
smoothSolver:  Solving for Ux, Initial residual = 0, Final residual = 0, No Iterations 0
smoothSolver:  Solving for Uy, Initial residual = 0, Final residual = 0, No Iterations 0
GAMG:  Solving for p, Initial residual = 0, Final residual = 0, No Iterations 0
time step continuity errors : sum local = 0, global = 0, cumulative = 0
GAMG:  Solving for p, Initial residual = 0, Final residual = 0, No Iterations 0
time step continuity errors : sum local = 0, global = 0, cumulative = 0
smoothSolver:  Solving for k, Initial residual = 0.00062419, Final residual = 3.70136e-06, No Iterations 2
bounding k, min: 1e-20 max: 1e-06 average: 2.45486e-08
ExecutionTime = 0.87 s  ClockTime = 1 s

Time = 0.515

Courant Number mean: 0 max: 0
smoothSolver:  Solving for Ux, Initial residual = 0, Final residual = 0, No Iterations 0
smoothSolver:  Solving for Uy, Initial residual = 0, Final residual = 0, No Iterations 0
GAMG:  Solving for p, Initial residual = 0, Final residual = 0, No Iterations 0
time step continuity errors : sum local = 0, global = 0, cumulative = 0
GAMG:  Solving for p, Initial residual = 0, Final residual = 0, No Iterations 0
time step continuity errors : sum local = 0, global = 0, cumulative = 0
smoothSolver:  Solving for k, Initial residual = 0.000618344, Final residual = 3.65898e-06, No Iterations 2
bounding k, min: 1e-20 max: 1e-06 average: 2.46573e-08
ExecutionTime = 0.88 s  ClockTime = 1 s

Time = 0.52

Courant Number mean: 0 max: 0
smoothSolver:  Solving for Ux, Initial residual = 0, Final residual = 0, No Iterations 0
smoothSolver:  Solving for Uy, Initial residual = 0, Final residual = 0, No Iterations 0
GAMG:  Solving for p, Initial residual = 0, Final residual = 0, No Iterations 0
time step continuity errors : sum local = 0, global = 0, cumulative = 0
GAMG:  Solving for p, Initial residual = 0, Final residual = 0, No Iterations 0
time step continuity errors : sum local = 0, global = 0, cumulative = 0
smoothSolver:  Solving for k, Initial residual = 0.000612613, Final residual = 3.61747e-06, No Iterations 2
bounding k, min: 1e-20 max: 1e-06 average: 2.47655e-08
ExecutionTime = 0.88 s  ClockTime = 1 s

Time = 0.525

Courant Number mean: 0 max: 0
smoothSolver:  Solving for Ux, Initial residual = 0, Final residual = 0, No Iterations 0
smoothSolver:  Solving for Uy, Initial residual = 0, Final residual = 0, No Iterations 0
GAMG:  Solving for p, Initial residual = 0, Final residual = 0, No Iterations 0
time step continuity errors : sum local = 0, global = 0, cumulative = 0
GAMG:  Solving for p, Initial residual = 0, Final residual = 0, No Iterations 0
time step continuity errors : sum local = 0, global = 0, cumulative = 0
smoothSolver:  Solving for k, Initial residual = 0.000606992, Final residual = 3.57682e-06, No Iterations 2
bounding k, min: 1e-20 max: 1e-06 average: 2.4873e-08
ExecutionTime = 0.89 s  ClockTime = 1 s

Time = 0.53

Courant Number mean: 0 max: 0
smoothSolver:  Solving for Ux, Initial residual = 0, Final residual = 0, No Iterations 0
smoothSolver:  Solving for Uy, Initial residual = 0, Final residual = 0, No Iterations 0
GAMG:  Solving for p, Initial residual = 0, Final residual = 0, No Iterations 0
time step continuity errors : sum local = 0, global = 0, cumulative = 0
GAMG:  Solving for p, Initial residual = 0, Final residual = 0, No Iterations 0
time step continuity errors : sum local = 0, global = 0, cumulative = 0
smoothSolver:  Solving for k, Initial residual = 0.000601479, Final residual = 3.537e-06, No Iterations 2
bounding k, min: 1e-20 max: 1e-06 average: 2.49799e-08
ExecutionTime = 0.9 s  ClockTime = 1 s

Time = 0.535

Courant Number mean: 0 max: 0
smoothSolver:  Solving for Ux, Initial residual = 0, Final residual = 0, No Iterations 0
smoothSolver:  Solving for Uy, Initial residual = 0, Final residual = 0, No Iterations 0
GAMG:  Solving for p, Initial residual = 0, Final residual = 0, No Iterations 0
time step continuity errors : sum local = 0, global = 0, cumulative = 0
GAMG:  Solving for p, Initial residual = 0, Final residual = 0, No Iterations 0
time step continuity errors : sum local = 0, global = 0, cumulative = 0
smoothSolver:  Solving for k, Initial residual = 0.00059607, Final residual = 3.49798e-06, No Iterations 2
bounding k, min: 1e-20 max: 1e-06 average: 2.50862e-08
[...]
ExecutionTime = 28.6 s  ClockTime = 28 s

Time = 19.87

Courant Number mean: 0 max: 0
smoothSolver:  Solving for Ux, Initial residual = 0, Final residual = 0, No Iterations 0
smoothSolver:  Solving for Uy, Initial residual = 0, Final residual = 0, No Iterations 0
GAMG:  Solving for p, Initial residual = 0, Final residual = 0, No Iterations 0
time step continuity errors : sum local = 0, global = 0, cumulative = 0
GAMG:  Solving for p, Initial residual = 0, Final residual = 0, No Iterations 0
time step continuity errors : sum local = 0, global = 0, cumulative = 0
smoothSolver:  Solving for k, Initial residual = 2.3373e-05, Final residual = 8.08703e-07, No Iterations 1
bounding k, min: 1e-20 max: 1e-06 average: 1.02422e-07
ExecutionTime = 28.61 s  ClockTime = 28 s

Time = 19.875

Courant Number mean: 0 max: 0
smoothSolver:  Solving for Ux, Initial residual = 0, Final residual = 0, No Iterations 0
smoothSolver:  Solving for Uy, Initial residual = 0, Final residual = 0, No Iterations 0
GAMG:  Solving for p, Initial residual = 0, Final residual = 0, No Iterations 0
time step continuity errors : sum local = 0, global = 0, cumulative = 0
GAMG:  Solving for p, Initial residual = 0, Final residual = 0, No Iterations 0
time step continuity errors : sum local = 0, global = 0, cumulative = 0
smoothSolver:  Solving for k, Initial residual = 2.3368e-05, Final residual = 8.08461e-07, No Iterations 1
bounding k, min: 1e-20 max: 1e-06 average: 1.0243e-07
ExecutionTime = 28.62 s  ClockTime = 28 s

Time = 19.88

Courant Number mean: 0 max: 0
smoothSolver:  Solving for Ux, Initial residual = 0, Final residual = 0, No Iterations 0
smoothSolver:  Solving for Uy, Initial residual = 0, Final residual = 0, No Iterations 0
GAMG:  Solving for p, Initial residual = 0, Final residual = 0, No Iterations 0
time step continuity errors : sum local = 0, global = 0, cumulative = 0
GAMG:  Solving for p, Initial residual = 0, Final residual = 0, No Iterations 0
time step continuity errors : sum local = 0, global = 0, cumulative = 0
smoothSolver:  Solving for k, Initial residual = 2.3363e-05, Final residual = 8.0822e-07, No Iterations 1
bounding k, min: 1e-20 max: 1e-06 average: 1.02438e-07
ExecutionTime = 28.62 s  ClockTime = 28 s

Time = 19.885

Courant Number mean: 0 max: 0
smoothSolver:  Solving for Ux, Initial residual = 0, Final residual = 0, No Iterations 0
smoothSolver:  Solving for Uy, Initial residual = 0, Final residual = 0, No Iterations 0
GAMG:  Solving for p, Initial residual = 0, Final residual = 0, No Iterations 0
time step continuity errors : sum local = 0, global = 0, cumulative = 0
GAMG:  Solving for p, Initial residual = 0, Final residual = 0, No Iterations 0
time step continuity errors : sum local = 0, global = 0, cumulative = 0
smoothSolver:  Solving for k, Initial residual = 2.3358e-05, Final residual = 8.07979e-07, No Iterations 1
bounding k, min: 1e-20 max: 1e-06 average: 1.02447e-07
ExecutionTime = 28.63 s  ClockTime = 28 s

Time = 19.89

Courant Number mean: 0 max: 0
smoothSolver:  Solving for Ux, Initial residual = 0, Final residual = 0, No Iterations 0
smoothSolver:  Solving for Uy, Initial residual = 0, Final residual = 0, No Iterations 0
GAMG:  Solving for p, Initial residual = 0, Final residual = 0, No Iterations 0
time step continuity errors : sum local = 0, global = 0, cumulative = 0
GAMG:  Solving for p, Initial residual = 0, Final residual = 0, No Iterations 0
time step continuity errors : sum local = 0, global = 0, cumulative = 0
smoothSolver:  Solving for k, Initial residual = 2.33531e-05, Final residual = 8.07738e-07, No Iterations 1
bounding k, min: 1e-20 max: 1e-06 average: 1.02455e-07
ExecutionTime = 28.64 s  ClockTime = 28 s

Time = 19.895

Courant Number mean: 0 max: 0
smoothSolver:  Solving for Ux, Initial residual = 0, Final residual = 0, No Iterations 0
smoothSolver:  Solving for Uy, Initial residual = 0, Final residual = 0, No Iterations 0
GAMG:  Solving for p, Initial residual = 0, Final residual = 0, No Iterations 0
time step continuity errors : sum local = 0, global = 0, cumulative = 0
GAMG:  Solving for p, Initial residual = 0, Final residual = 0, No Iterations 0
time step continuity errors : sum local = 0, global = 0, cumulative = 0
smoothSolver:  Solving for k, Initial residual = 2.33481e-05, Final residual = 8.07497e-07, No Iterations 1
bounding k, min: 1e-20 max: 1e-06 average: 1.02463e-07
ExecutionTime = 28.65 s  ClockTime = 28 s

Time = 19.9

Courant Number mean: 0 max: 0
smoothSolver:  Solving for Ux, Initial residual = 0, Final residual = 0, No Iterations 0
smoothSolver:  Solving for Uy, Initial residual = 0, Final residual = 0, No Iterations 0
GAMG:  Solving for p, Initial residual = 0, Final residual = 0, No Iterations 0
time step continuity errors : sum local = 0, global = 0, cumulative = 0
GAMG:  Solving for p, Initial residual = 0, Final residual = 0, No Iterations 0
time step continuity errors : sum local = 0, global = 0, cumulative = 0
smoothSolver:  Solving for k, Initial residual = 2.33431e-05, Final residual = 8.07256e-07, No Iterations 1
bounding k, min: 1e-20 max: 1e-06 average: 1.02472e-07
ExecutionTime = 28.66 s  ClockTime = 28 s

Time = 19.905

Courant Number mean: 0 max: 0
smoothSolver:  Solving for Ux, Initial residual = 0, Final residual = 0, No Iterations 0
smoothSolver:  Solving for Uy, Initial residual = 0, Final residual = 0, No Iterations 0
GAMG:  Solving for p, Initial residual = 0, Final residual = 0, No Iterations 0
time step continuity errors : sum local = 0, global = 0, cumulative = 0
GAMG:  Solving for p, Initial residual = 0, Final residual = 0, No Iterations 0
time step continuity errors : sum local = 0, global = 0, cumulative = 0
smoothSolver:  Solving for k, Initial residual = 2.33381e-05, Final residual = 8.07015e-07, No Iterations 1
bounding k, min: 1e-20 max: 1e-06 average: 1.0248e-07
ExecutionTime = 28.66 s  ClockTime = 28 s

Time = 19.91

Courant Number mean: 0 max: 0
smoothSolver:  Solving for Ux, Initial residual = 0, Final residual = 0, No Iterations 0
smoothSolver:  Solving for Uy, Initial residual = 0, Final residual = 0, No Iterations 0
GAMG:  Solving for p, Initial residual = 0, Final residual = 0, No Iterations 0
time step continuity errors : sum local = 0, global = 0, cumulative = 0
GAMG:  Solving for p, Initial residual = 0, Final residual = 0, No Iterations 0
time step continuity errors : sum local = 0, global = 0, cumulative = 0
smoothSolver:  Solving for k, Initial residual = 2.33331e-05, Final residual = 8.06775e-07, No Iterations 1
bounding k, min: 1e-20 max: 1e-06 average: 1.02488e-07
ExecutionTime = 28.67 s  ClockTime = 28 s

Time = 19.915

Courant Number mean: 0 max: 0
smoothSolver:  Solving for Ux, Initial residual = 0, Final residual = 0, No Iterations 0
smoothSolver:  Solving for Uy, Initial residual = 0, Final residual = 0, No Iterations 0
GAMG:  Solving for p, Initial residual = 0, Final residual = 0, No Iterations 0
time step continuity errors : sum local = 0, global = 0, cumulative = 0
GAMG:  Solving for p, Initial residual = 0, Final residual = 0, No Iterations 0
time step continuity errors : sum local = 0, global = 0, cumulative = 0
smoothSolver:  Solving for k, Initial residual = 2.33282e-05, Final residual = 8.06534e-07, No Iterations 1
bounding k, min: 1e-20 max: 1e-06 average: 1.02497e-07
ExecutionTime = 28.68 s  ClockTime = 28 s

Time = 19.92

Courant Number mean: 0 max: 0
smoothSolver:  Solving for Ux, Initial residual = 0, Final residual = 0, No Iterations 0
smoothSolver:  Solving for Uy, Initial residual = 0, Final residual = 0, No Iterations 0
GAMG:  Solving for p, Initial residual = 0, Final residual = 0, No Iterations 0
time step continuity errors : sum local = 0, global = 0, cumulative = 0
GAMG:  Solving for p, Initial residual = 0, Final residual = 0, No Iterations 0
time step continuity errors : sum local = 0, global = 0, cumulative = 0
smoothSolver:  Solving for k, Initial residual = 2.33232e-05, Final residual = 8.06294e-07, No Iterations 1
bounding k, min: 1e-20 max: 1e-06 average: 1.02505e-07
ExecutionTime = 28.69 s  ClockTime = 28 s

Time = 19.925

Courant Number mean: 0 max: 0
smoothSolver:  Solving for Ux, Initial residual = 0, Final residual = 0, No Iterations 0
smoothSolver:  Solving for Uy, Initial residual = 0, Final residual = 0, No Iterations 0
GAMG:  Solving for p, Initial residual = 0, Final residual = 0, No Iterations 0
time step continuity errors : sum local = 0, global = 0, cumulative = 0
GAMG:  Solving for p, Initial residual = 0, Final residual = 0, No Iterations 0
time step continuity errors : sum local = 0, global = 0, cumulative = 0
smoothSolver:  Solving for k, Initial residual = 2.33182e-05, Final residual = 8.06054e-07, No Iterations 1
bounding k, min: 1e-20 max: 1e-06 average: 1.02513e-07
ExecutionTime = 28.69 s  ClockTime = 28 s

Time = 19.93

Courant Number mean: 0 max: 0
smoothSolver:  Solving for Ux, Initial residual = 0, Final residual = 0, No Iterations 0
smoothSolver:  Solving for Uy, Initial residual = 0, Final residual = 0, No Iterations 0
GAMG:  Solving for p, Initial residual = 0, Final residual = 0, No Iterations 0
time step continuity errors : sum local = 0, global = 0, cumulative = 0
GAMG:  Solving for p, Initial residual = 0, Final residual = 0, No Iterations 0
time step continuity errors : sum local = 0, global = 0, cumulative = 0
smoothSolver:  Solving for k, Initial residual = 2.33133e-05, Final residual = 8.05814e-07, No Iterations 1
bounding k, min: 1e-20 max: 1e-06 average: 1.02522e-07
ExecutionTime = 28.7 s  ClockTime = 28 s

Time = 19.935

Courant Number mean: 0 max: 0
smoothSolver:  Solving for Ux, Initial residual = 0, Final residual = 0, No Iterations 0
smoothSolver:  Solving for Uy, Initial residual = 0, Final residual = 0, No Iterations 0
GAMG:  Solving for p, Initial residual = 0, Final residual = 0, No Iterations 0
time step continuity errors : sum local = 0, global = 0, cumulative = 0
GAMG:  Solving for p, Initial residual = 0, Final residual = 0, No Iterations 0
time step continuity errors : sum local = 0, global = 0, cumulative = 0
smoothSolver:  Solving for k, Initial residual = 2.33083e-05, Final residual = 8.05574e-07, No Iterations 1
bounding k, min: 1e-20 max: 1e-06 average: 1.0253e-07
ExecutionTime = 28.71 s  ClockTime = 28 s

Time = 19.94

Courant Number mean: 0 max: 0
smoothSolver:  Solving for Ux, Initial residual = 0, Final residual = 0, No Iterations 0
smoothSolver:  Solving for Uy, Initial residual = 0, Final residual = 0, No Iterations 0
GAMG:  Solving for p, Initial residual = 0, Final residual = 0, No Iterations 0
time step continuity errors : sum local = 0, global = 0, cumulative = 0
GAMG:  Solving for p, Initial residual = 0, Final residual = 0, No Iterations 0
time step continuity errors : sum local = 0, global = 0, cumulative = 0
smoothSolver:  Solving for k, Initial residual = 2.33033e-05, Final residual = 8.05334e-07, No Iterations 1
bounding k, min: 1e-20 max: 1e-06 average: 1.02538e-07
ExecutionTime = 28.71 s  ClockTime = 28 s

Time = 19.945

Courant Number mean: 0 max: 0
smoothSolver:  Solving for Ux, Initial residual = 0, Final residual = 0, No Iterations 0
smoothSolver:  Solving for Uy, Initial residual = 0, Final residual = 0, No Iterations 0
GAMG:  Solving for p, Initial residual = 0, Final residual = 0, No Iterations 0
time step continuity errors : sum local = 0, global = 0, cumulative = 0
GAMG:  Solving for p, Initial residual = 0, Final residual = 0, No Iterations 0
time step continuity errors : sum local = 0, global = 0, cumulative = 0
smoothSolver:  Solving for k, Initial residual = 2.32984e-05, Final residual = 8.05094e-07, No Iterations 1
bounding k, min: 1e-20 max: 1e-06 average: 1.02547e-07
ExecutionTime = 28.72 s  ClockTime = 28 s

Time = 19.95

Courant Number mean: 0 max: 0
smoothSolver:  Solving for Ux, Initial residual = 0, Final residual = 0, No Iterations 0
smoothSolver:  Solving for Uy, Initial residual = 0, Final residual = 0, No Iterations 0
GAMG:  Solving for p, Initial residual = 0, Final residual = 0, No Iterations 0
time step continuity errors : sum local = 0, global = 0, cumulative = 0
GAMG:  Solving for p, Initial residual = 0, Final residual = 0, No Iterations 0
time step continuity errors : sum local = 0, global = 0, cumulative = 0
smoothSolver:  Solving for k, Initial residual = 2.32934e-05, Final residual = 8.04855e-07, No Iterations 1
bounding k, min: 1e-20 max: 1e-06 average: 1.02555e-07
ExecutionTime = 28.73 s  ClockTime = 28 s

Time = 19.955

Courant Number mean: 0 max: 0
smoothSolver:  Solving for Ux, Initial residual = 0, Final residual = 0, No Iterations 0
smoothSolver:  Solving for Uy, Initial residual = 0, Final residual = 0, No Iterations 0
GAMG:  Solving for p, Initial residual = 0, Final residual = 0, No Iterations 0
time step continuity errors : sum local = 0, global = 0, cumulative = 0
GAMG:  Solving for p, Initial residual = 0, Final residual = 0, No Iterations 0
time step continuity errors : sum local = 0, global = 0, cumulative = 0
smoothSolver:  Solving for k, Initial residual = 2.32885e-05, Final residual = 8.04616e-07, No Iterations 1
bounding k, min: 1e-20 max: 1e-06 average: 1.02563e-07
ExecutionTime = 28.73 s  ClockTime = 28 s

Time = 19.96

Courant Number mean: 0 max: 0
smoothSolver:  Solving for Ux, Initial residual = 0, Final residual = 0, No Iterations 0
smoothSolver:  Solving for Uy, Initial residual = 0, Final residual = 0, No Iterations 0
GAMG:  Solving for p, Initial residual = 0, Final residual = 0, No Iterations 0
time step continuity errors : sum local = 0, global = 0, cumulative = 0
GAMG:  Solving for p, Initial residual = 0, Final residual = 0, No Iterations 0
time step continuity errors : sum local = 0, global = 0, cumulative = 0
smoothSolver:  Solving for k, Initial residual = 2.32835e-05, Final residual = 8.04376e-07, No Iterations 1
bounding k, min: 1e-20 max: 1e-06 average: 1.02572e-07
ExecutionTime = 28.74 s  ClockTime = 28 s

Time = 19.965

Courant Number mean: 0 max: 0
smoothSolver:  Solving for Ux, Initial residual = 0, Final residual = 0, No Iterations 0
smoothSolver:  Solving for Uy, Initial residual = 0, Final residual = 0, No Iterations 0
GAMG:  Solving for p, Initial residual = 0, Final residual = 0, No Iterations 0
time step continuity errors : sum local = 0, global = 0, cumulative = 0
GAMG:  Solving for p, Initial residual = 0, Final residual = 0, No Iterations 0
time step continuity errors : sum local = 0, global = 0, cumulative = 0
smoothSolver:  Solving for k, Initial residual = 2.32786e-05, Final residual = 8.04137e-07, No Iterations 1
bounding k, min: 1e-20 max: 1e-06 average: 1.0258e-07
ExecutionTime = 28.75 s  ClockTime = 28 s

Time = 19.97

Courant Number mean: 0 max: 0
smoothSolver:  Solving for Ux, Initial residual = 0, Final residual = 0, No Iterations 0
smoothSolver:  Solving for Uy, Initial residual = 0, Final residual = 0, No Iterations 0
GAMG:  Solving for p, Initial residual = 0, Final residual = 0, No Iterations 0
time step continuity errors : sum local = 0, global = 0, cumulative = 0
GAMG:  Solving for p, Initial residual = 0, Final residual = 0, No Iterations 0
time step continuity errors : sum local = 0, global = 0, cumulative = 0
smoothSolver:  Solving for k, Initial residual = 2.32736e-05, Final residual = 8.03898e-07, No Iterations 1
bounding k, min: 1e-20 max: 1e-06 average: 1.02588e-07
ExecutionTime = 28.75 s  ClockTime = 28 s

Time = 19.975

Courant Number mean: 0 max: 0
smoothSolver:  Solving for Ux, Initial residual = 0, Final residual = 0, No Iterations 0
smoothSolver:  Solving for Uy, Initial residual = 0, Final residual = 0, No Iterations 0
GAMG:  Solving for p, Initial residual = 0, Final residual = 0, No Iterations 0
time step continuity errors : sum local = 0, global = 0, cumulative = 0
GAMG:  Solving for p, Initial residual = 0, Final residual = 0, No Iterations 0
time step continuity errors : sum local = 0, global = 0, cumulative = 0
smoothSolver:  Solving for k, Initial residual = 2.32687e-05, Final residual = 8.03659e-07, No Iterations 1
bounding k, min: 1e-20 max: 1e-06 average: 1.02597e-07
ExecutionTime = 28.76 s  ClockTime = 28 s

Time = 19.98

Courant Number mean: 0 max: 0
smoothSolver:  Solving for Ux, Initial residual = 0, Final residual = 0, No Iterations 0
smoothSolver:  Solving for Uy, Initial residual = 0, Final residual = 0, No Iterations 0
GAMG:  Solving for p, Initial residual = 0, Final residual = 0, No Iterations 0
time step continuity errors : sum local = 0, global = 0, cumulative = 0
GAMG:  Solving for p, Initial residual = 0, Final residual = 0, No Iterations 0
time step continuity errors : sum local = 0, global = 0, cumulative = 0
smoothSolver:  Solving for k, Initial residual = 2.32637e-05, Final residual = 8.03421e-07, No Iterations 1
bounding k, min: 1e-20 max: 1e-06 average: 1.02605e-07
ExecutionTime = 28.77 s  ClockTime = 28 s

Time = 19.985

Courant Number mean: 0 max: 0
smoothSolver:  Solving for Ux, Initial residual = 0, Final residual = 0, No Iterations 0
smoothSolver:  Solving for Uy, Initial residual = 0, Final residual = 0, No Iterations 0
GAMG:  Solving for p, Initial residual = 0, Final residual = 0, No Iterations 0
time step continuity errors : sum local = 0, global = 0, cumulative = 0
GAMG:  Solving for p, Initial residual = 0, Final residual = 0, No Iterations 0
time step continuity errors : sum local = 0, global = 0, cumulative = 0
smoothSolver:  Solving for k, Initial residual = 2.32588e-05, Final residual = 8.03182e-07, No Iterations 1
bounding k, min: 1e-20 max: 1e-06 average: 1.02613e-07
ExecutionTime = 28.78 s  ClockTime = 28 s

Time = 19.99

Courant Number mean: 0 max: 0
smoothSolver:  Solving for Ux, Initial residual = 0, Final residual = 0, No Iterations 0
smoothSolver:  Solving for Uy, Initial residual = 0, Final residual = 0, No Iterations 0
GAMG:  Solving for p, Initial residual = 0, Final residual = 0, No Iterations 0
time step continuity errors : sum local = 0, global = 0, cumulative = 0
GAMG:  Solving for p, Initial residual = 0, Final residual = 0, No Iterations 0
time step continuity errors : sum local = 0, global = 0, cumulative = 0
smoothSolver:  Solving for k, Initial residual = 2.32538e-05, Final residual = 8.02944e-07, No Iterations 1
bounding k, min: 1e-20 max: 1e-06 average: 1.02622e-07
ExecutionTime = 28.78 s  ClockTime = 28 s

Time = 19.995

Courant Number mean: 0 max: 0
smoothSolver:  Solving for Ux, Initial residual = 0, Final residual = 0, No Iterations 0
smoothSolver:  Solving for Uy, Initial residual = 0, Final residual = 0, No Iterations 0
GAMG:  Solving for p, Initial residual = 0, Final residual = 0, No Iterations 0
time step continuity errors : sum local = 0, global = 0, cumulative = 0
GAMG:  Solving for p, Initial residual = 0, Final residual = 0, No Iterations 0
time step continuity errors : sum local = 0, global = 0, cumulative = 0
smoothSolver:  Solving for k, Initial residual = 2.32489e-05, Final residual = 8.02705e-07, No Iterations 1
bounding k, min: 1e-20 max: 1e-06 average: 1.0263e-07
ExecutionTime = 28.79 s  ClockTime = 28 s

Time = 20

Courant Number mean: 0 max: 0
smoothSolver:  Solving for Ux, Initial residual = 0, Final residual = 0, No Iterations 0
smoothSolver:  Solving for Uy, Initial residual = 0, Final residual = 0, No Iterations 0
GAMG:  Solving for p, Initial residual = 0, Final residual = 0, No Iterations 0
time step continuity errors : sum local = 0, global = 0, cumulative = 0
GAMG:  Solving for p, Initial residual = 0, Final residual = 0, No Iterations 0
time step continuity errors : sum local = 0, global = 0, cumulative = 0
smoothSolver:  Solving for k, Initial residual = 2.3244e-05, Final residual = 8.02467e-07, No Iterations 1
bounding k, min: 1e-20 max: 1e-06 average: 1.02638e-07
ExecutionTime = 28.8 s  ClockTime = 28 s

yPlus yPlus1 write:
    writing field yPlus
    patch movingWall y+ : min = 0, max = 0, average = 0
    patch fixedWalls y+ : min = 0, max = 0, average = 0
End

Finalising parallel run
