/*---------------------------------------------------------------------------*\
| =========                 |                                                 |
| \\      /  F ield         | OpenFOAM: The Open Source CFD Toolbox           |
|  \\    /   O peration     | Version:  2206                                  |
|   \\  /    A nd           | Website:  www.openfoam.com                      |
|    \\/     M anipulation  |                                                 |
\*---------------------------------------------------------------------------*/
Build  : _76d719d1-20220624 OPENFOAM=2206 version=v2206
Arch   : "LSB;label=64;scalar=64"
Exec   : reconstructPar
Date   : Feb 14 2023
Time   : 11:51:56
Host   : DESKTOP-BTFG136
PID    : 10178
I/O    : uncollated
Case   : /home/noreff/works/OpenFOAM-2206-user/Projects/CHADvalidation/cavity/cavity_piso
nProcs : 1
trapFpe: Floating point exception trapping enabled (FOAM_SIGFPE).
fileModificationChecking : Monitoring run-time modified files using timeStampMaster (fileModificationSkew 5, maxFileModificationPolls 20)
allowSystemOperations : Allowing user-supplied system call operations

// * * * * * * * * * * * * * * * * * * * * * * * * * * * * * * * * * * * * * //
Create time



Reconstructing fields
region=region0

Time = 2

Reconstructing FV fields

    Reconstructing volScalarFields

        k
        k_0
        nut
        p
        yPlus

    Reconstructing volVectorFields

        U
        U_0

    Reconstructing surfaceScalarFields

        phi
        phi_0

Reconstructing point fields

No point fields

No lagrangian fields

No FA fields

Time = 4

Reconstructing FV fields

    Reconstructing volScalarFields

        k
        k_0
        nut
        p
        yPlus

    Reconstructing volVectorFields

        U
        U_0

    Reconstructing surfaceScalarFields

        phi
        phi_0

Reconstructing point fields

No point fields

No lagrangian fields

No FA fields

Time = 6

Reconstructing FV fields

    Reconstructing volScalarFields

        k
        k_0
        nut
        p
        yPlus

    Reconstructing volVectorFields

        U
        U_0

    Reconstructing surfaceScalarFields

        phi
        phi_0

Reconstructing point fields

No point fields

No lagrangian fields

No FA fields

Time = 8

Reconstructing FV fields

    Reconstructing volScalarFields

        k
        k_0
        nut
        p
        yPlus

    Reconstructing volVectorFields

        U
        U_0

    Reconstructing surfaceScalarFields

        phi
        phi_0

Reconstructing point fields

No point fields

No lagrangian fields

No FA fields

Time = 10

Reconstructing FV fields

    Reconstructing volScalarFields

        k
        k_0
        nut
        p
        yPlus

    Reconstructing volVectorFields

        U
        U_0

    Reconstructing surfaceScalarFields

        phi
        phi_0

Reconstructing point fields

No point fields

No lagrangian fields

No FA fields

Time = 12

Reconstructing FV fields

    Reconstructing volScalarFields

        k
        k_0
        nut
        p
        yPlus

    Reconstructing volVectorFields

        U
        U_0

    Reconstructing surfaceScalarFields

        phi
        phi_0

Reconstructing point fields

No point fields

No lagrangian fields

No FA fields

Time = 14

Reconstructing FV fields

    Reconstructing volScalarFields

        k
        k_0
        nut
        p
        yPlus

    Reconstructing volVectorFields

        U
        U_0

    Reconstructing surfaceScalarFields

        phi
        phi_0

Reconstructing point fields

No point fields

No lagrangian fields

No FA fields

Time = 16

Reconstructing FV fields

    Reconstructing volScalarFields

        k
        k_0
        nut
        p
        yPlus

    Reconstructing volVectorFields

        U
        U_0

    Reconstructing surfaceScalarFields

        phi
        phi_0

Reconstructing point fields

No point fields

No lagrangian fields

No FA fields

Time = 18

Reconstructing FV fields

    Reconstructing volScalarFields

        k
        k_0
        nut
        p
        yPlus

    Reconstructing volVectorFields

        U
        U_0

    Reconstructing surfaceScalarFields

        phi
        phi_0

Reconstructing point fields

No point fields

No lagrangian fields

No FA fields

Time = 20

Reconstructing FV fields

    Reconstructing volScalarFields

        k
        k_0
        nut
        p
        yPlus

    Reconstructing volVectorFields

        U
        U_0

    Reconstructing surfaceScalarFields

        phi
        phi_0

Reconstructing point fields

No point fields

No lagrangian fields

No FA fields

Time = 22

Reconstructing FV fields

    Reconstructing volScalarFields

        k
        k_0
        nut
        p
        yPlus

    Reconstructing volVectorFields

        U
        U_0

    Reconstructing surfaceScalarFields

        phi
        phi_0

Reconstructing point fields

No point fields

No lagrangian fields

No FA fields

Time = 24

Reconstructing FV fields

    Reconstructing volScalarFields

        k
        k_0
        nut
        p
        yPlus

    Reconstructing volVectorFields

        U
        U_0

    Reconstructing surfaceScalarFields

        phi
        phi_0

Reconstructing point fields

No point fields

No lagrangian fields

No FA fields

Time = 26

Reconstructing FV fields

    Reconstructing volScalarFields

        k
        k_0
        nut
        p
        yPlus

    Reconstructing volVectorFields

        U
        U_0

    Reconstructing surfaceScalarFields

        phi
        phi_0

Reconstructing point fields

No point fields

No lagrangian fields

No FA fields

Time = 28

Reconstructing FV fields

    Reconstructing volScalarFields

        k
        k_0
        nut
        p
        yPlus

    Reconstructing volVectorFields

        U
        U_0

    Reconstructing surfaceScalarFields

        phi
        phi_0

Reconstructing point fields

No point fields

No lagrangian fields

No FA fields

Time = 30

Reconstructing FV fields

    Reconstructing volScalarFields

        k
        k_0
        nut
        p
        yPlus

    Reconstructing volVectorFields

        U
        U_0

    Reconstructing surfaceScalarFields

        phi
        phi_0

Reconstructing point fields

No point fields

No lagrangian fields

No FA fields

Time = 32

Reconstructing FV fields

    Reconstructing volScalarFields

        k
        k_0
        nut
        p
        yPlus

    Reconstructing volVectorFields

        U
        U_0

    Reconstructing surfaceScalarFields

        phi
        phi_0

Reconstructing point fields

No point fields

No lagrangian fields

No FA fields

Time = 34

Reconstructing FV fields

    Reconstructing volScalarFields

        k
        k_0
        nut
        p
        yPlus

    Reconstructing volVectorFields

        U
        U_0

    Reconstructing surfaceScalarFields

        phi
        phi_0

Reconstructing point fields

No point fields

No lagrangian fields

No FA fields

Time = 36

Reconstructing FV fields

    Reconstructing volScalarFields

        k
        k_0
        nut
        p
        yPlus

    Reconstructing volVectorFields

        U
        U_0

    Reconstructing surfaceScalarFields

        phi
        phi_0

Reconstructing point fields

No point fields

No lagrangian fields

No FA fields

Time = 38

Reconstructing FV fields

    Reconstructing volScalarFields

        k
        k_0
        nut
        p
        yPlus

    Reconstructing volVectorFields

        U
        U_0

    Reconstructing surfaceScalarFields

        phi
        phi_0

Reconstructing point fields

No point fields

No lagrangian fields

No FA fields

Time = 40

Reconstructing FV fields

    Reconstructing volScalarFields

        k
        k_0
        nut
        p
        yPlus

    Reconstructing volVectorFields

        U
        U_0

    Reconstructing surfaceScalarFields

        phi
        phi_0

Reconstructing point fields

No point fields

No lagrangian fields

No FA fields

Time = 42

Reconstructing FV fields

    Reconstructing volScalarFields

        k
        k_0
        nut
        p
        yPlus

    Reconstructing volVectorFields

        U
        U_0

    Reconstructing surfaceScalarFields

        phi
        phi_0

Reconstructing point fields

No point fields

No lagrangian fields

No FA fields

Time = 44

Reconstructing FV fields

    Reconstructing volScalarFields

        k
        k_0
        nut
        p
        yPlus

    Reconstructing volVectorFields

        U
        U_0

    Reconstructing surfaceScalarFields

        phi
        phi_0

Reconstructing point fields

No point fields

No lagrangian fields

No FA fields

Time = 46

Reconstructing FV fields

    Reconstructing volScalarFields

        k
        k_0
        nut
        p
        yPlus

    Reconstructing volVectorFields

        U
        U_0

    Reconstructing surfaceScalarFields

        phi
        phi_0

Reconstructing point fields

No point fields

No lagrangian fields

No FA fields

Time = 48

Reconstructing FV fields

    Reconstructing volScalarFields

        k
        k_0
        nut
        p
        yPlus

    Reconstructing volVectorFields

        U
        U_0

    Reconstructing surfaceScalarFields

        phi
        phi_0

Reconstructing point fields

No point fields

No lagrangian fields

No FA fields

Time = 50

Reconstructing FV fields

    Reconstructing volScalarFields

        k
        k_0
        nut
        p
        yPlus

    Reconstructing volVectorFields

        U
        U_0

    Reconstructing surfaceScalarFields

        phi
        phi_0

Reconstructing point fields

No point fields

No lagrangian fields

No FA fields

Time = 52

Reconstructing FV fields

    Reconstructing volScalarFields

        k
        k_0
        nut
        p
        yPlus

    Reconstructing volVectorFields

        U
        U_0

    Reconstructing surfaceScalarFields

        phi
        phi_0

Reconstructing point fields

No point fields

No lagrangian fields

No FA fields

Time = 54

Reconstructing FV fields

    Reconstructing volScalarFields

        k
        k_0
        nut
        p
        yPlus

    Reconstructing volVectorFields

        U
        U_0

    Reconstructing surfaceScalarFields

        phi
        phi_0

Reconstructing point fields

No point fields

No lagrangian fields

No FA fields

Time = 56

Reconstructing FV fields

    Reconstructing volScalarFields

        k
        k_0
        nut
        p
        yPlus

    Reconstructing volVectorFields

        U
        U_0

    Reconstructing surfaceScalarFields

        phi
        phi_0

Reconstructing point fields

No point fields

No lagrangian fields

No FA fields

Time = 58

Reconstructing FV fields

    Reconstructing volScalarFields

        k
        k_0
        nut
        p
        yPlus

    Reconstructing volVectorFields

        U
        U_0

    Reconstructing surfaceScalarFields

        phi
        phi_0

Reconstructing point fields

No point fields

No lagrangian fields

No FA fields

Time = 60

Reconstructing FV fields

    Reconstructing volScalarFields

        k
        k_0
        nut
        p
        yPlus

    Reconstructing volVectorFields

        U
        U_0

    Reconstructing surfaceScalarFields

        phi
        phi_0

Reconstructing point fields

No point fields

No lagrangian fields

No FA fields

Time = 62

Reconstructing FV fields

    Reconstructing volScalarFields

        k
        k_0
        nut
        p
        yPlus

    Reconstructing volVectorFields

        U
        U_0

    Reconstructing surfaceScalarFields

        phi
        phi_0

Reconstructing point fields

No point fields

No lagrangian fields

No FA fields

Time = 64

Reconstructing FV fields

    Reconstructing volScalarFields

        k
        k_0
        nut
        p
        yPlus

    Reconstructing volVectorFields

        U
        U_0

    Reconstructing surfaceScalarFields

        phi
        phi_0

Reconstructing point fields

No point fields

No lagrangian fields

No FA fields

Time = 66

Reconstructing FV fields

    Reconstructing volScalarFields

        k
        k_0
        nut
        p
        yPlus

    Reconstructing volVectorFields

        U
        U_0

    Reconstructing surfaceScalarFields

        phi
        phi_0

Reconstructing point fields

No point fields

No lagrangian fields

No FA fields

Time = 68

Reconstructing FV fields

    Reconstructing volScalarFields

        k
        k_0
        nut
        p
        yPlus

    Reconstructing volVectorFields

        U
        U_0

    Reconstructing surfaceScalarFields

        phi
        phi_0

Reconstructing point fields

No point fields

No lagrangian fields

No FA fields

Time = 70

Reconstructing FV fields

    Reconstructing volScalarFields

        k
        k_0
        nut
        p
        yPlus

    Reconstructing volVectorFields

        U
        U_0

    Reconstructing surfaceScalarFields

        phi
        phi_0

Reconstructing point fields

No point fields

No lagrangian fields

No FA fields

Time = 72

Reconstructing FV fields

    Reconstructing volScalarFields

        k
        k_0
        nut
        p
        yPlus

    Reconstructing volVectorFields

        U
        U_0

    Reconstructing surfaceScalarFields

        phi
        phi_0

Reconstructing point fields

No point fields

No lagrangian fields

No FA fields

Time = 74

Reconstructing FV fields

    Reconstructing volScalarFields

        k
        k_0
        nut
        p
        yPlus

    Reconstructing volVectorFields

        U
        U_0

    Reconstructing surfaceScalarFields

        phi
        phi_0

Reconstructing point fields

No point fields

No lagrangian fields

No FA fields

Time = 76

Reconstructing FV fields

    Reconstructing volScalarFields

        k
        k_0
        nut
        p
        yPlus

    Reconstructing volVectorFields

        U
        U_0

    Reconstructing surfaceScalarFields

        phi
        phi_0

Reconstructing point fields

No point fields

No lagrangian fields

No FA fields

Time = 78

Reconstructing FV fields

    Reconstructing volScalarFields

        k
        k_0
        nut
        p
        yPlus

    Reconstructing volVectorFields

        U
        U_0

    Reconstructing surfaceScalarFields

        phi
        phi_0

Reconstructing point fields

No point fields

No lagrangian fields

No FA fields

Time = 80

Reconstructing FV fields

    Reconstructing volScalarFields

        k
        k_0
        nut
        p
        yPlus

    Reconstructing volVectorFields

        U
        U_0

    Reconstructing surfaceScalarFields

        phi
        phi_0

Reconstructing point fields

No point fields

No lagrangian fields

No FA fields

Time = 82

Reconstructing FV fields

    Reconstructing volScalarFields

        k
        k_0
        nut
        p
        yPlus

    Reconstructing volVectorFields

        U
        U_0

    Reconstructing surfaceScalarFields

        phi
        phi_0

Reconstructing point fields

No point fields

No lagrangian fields

No FA fields

Time = 84

Reconstructing FV fields

    Reconstructing volScalarFields

        k
        k_0
        nut
        p
        yPlus

    Reconstructing volVectorFields

        U
        U_0

    Reconstructing surfaceScalarFields

        phi
        phi_0

Reconstructing point fields

No point fields

No lagrangian fields

No FA fields

Time = 86

Reconstructing FV fields

    Reconstructing volScalarFields

        k
        k_0
        nut
        p
        yPlus

    Reconstructing volVectorFields

        U
        U_0

    Reconstructing surfaceScalarFields

        phi
        phi_0

Reconstructing point fields

No point fields

No lagrangian fields

No FA fields

Time = 88

Reconstructing FV fields

    Reconstructing volScalarFields

        k
        k_0
        nut
        p
        yPlus

    Reconstructing volVectorFields

        U
        U_0

    Reconstructing surfaceScalarFields

        phi
        phi_0

Reconstructing point fields

No point fields

No lagrangian fields

No FA fields

Time = 90

Reconstructing FV fields

    Reconstructing volScalarFields

        k
        k_0
        nut
        p
        yPlus

    Reconstructing volVectorFields

        U
        U_0

    Reconstructing surfaceScalarFields

        phi
        phi_0

Reconstructing point fields

No point fields

No lagrangian fields

No FA fields

Time = 92

Reconstructing FV fields

    Reconstructing volScalarFields

        k
        k_0
        nut
        p
        yPlus

    Reconstructing volVectorFields

        U
        U_0

    Reconstructing surfaceScalarFields

        phi
        phi_0

Reconstructing point fields

No point fields

No lagrangian fields

No FA fields

Time = 94

Reconstructing FV fields

    Reconstructing volScalarFields

        k
        k_0
        nut
        p
        yPlus

    Reconstructing volVectorFields

        U
        U_0

    Reconstructing surfaceScalarFields

        phi
        phi_0

Reconstructing point fields

No point fields

No lagrangian fields

No FA fields

Time = 96

Reconstructing FV fields

    Reconstructing volScalarFields

        k
        k_0
        nut
        p
        yPlus

    Reconstructing volVectorFields

        U
        U_0

    Reconstructing surfaceScalarFields

        phi
        phi_0

Reconstructing point fields

No point fields

No lagrangian fields

No FA fields

Time = 98

Reconstructing FV fields

    Reconstructing volScalarFields

        k
        k_0
        nut
        p
        yPlus

    Reconstructing volVectorFields

        U
        U_0

    Reconstructing surfaceScalarFields

        phi
        phi_0

Reconstructing point fields

No point fields

No lagrangian fields

No FA fields

Time = 100

Reconstructing FV fields

    Reconstructing volScalarFields

        k
        k_0
        nut
        p
        yPlus

    Reconstructing volVectorFields

        U
        U_0

    Reconstructing surfaceScalarFields

        phi
        phi_0

Reconstructing point fields

No point fields

No lagrangian fields

No FA fields

Time = 102

Reconstructing FV fields

    Reconstructing volScalarFields

        k
        k_0
        nut
        p
        yPlus

    Reconstructing volVectorFields

        U
        U_0

    Reconstructing surfaceScalarFields

        phi
        phi_0

Reconstructing point fields

No point fields

No lagrangian fields

No FA fields

Time = 104

Reconstructing FV fields

    Reconstructing volScalarFields

        k
        k_0
        nut
        p
        yPlus

    Reconstructing volVectorFields

        U
        U_0

    Reconstructing surfaceScalarFields

        phi
        phi_0

Reconstructing point fields

No point fields

No lagrangian fields

No FA fields

Time = 106

Reconstructing FV fields

    Reconstructing volScalarFields

        k
        k_0
        nut
        p
        yPlus

    Reconstructing volVectorFields

        U
        U_0

    Reconstructing surfaceScalarFields

        phi
        phi_0

Reconstructing point fields

No point fields

No lagrangian fields

No FA fields

Time = 108

Reconstructing FV fields

    Reconstructing volScalarFields

        k
        k_0
        nut
        p
        yPlus

    Reconstructing volVectorFields

        U
        U_0

    Reconstructing surfaceScalarFields

        phi
        phi_0

Reconstructing point fields

No point fields

No lagrangian fields

No FA fields

Time = 110

Reconstructing FV fields

    Reconstructing volScalarFields

        k
        k_0
        nut
        p
        yPlus

    Reconstructing volVectorFields

        U
        U_0

    Reconstructing surfaceScalarFields

        phi
        phi_0

Reconstructing point fields

No point fields

No lagrangian fields

No FA fields

Time = 112

Reconstructing FV fields

    Reconstructing volScalarFields

        k
        k_0
        nut
        p
        yPlus

    Reconstructing volVectorFields

        U
        U_0

    Reconstructing surfaceScalarFields

        phi
        phi_0

Reconstructing point fields

No point fields

No lagrangian fields

No FA fields

Time = 114

Reconstructing FV fields

    Reconstructing volScalarFields

        k
        k_0
        nut
        p
        yPlus

    Reconstructing volVectorFields

        U
        U_0

    Reconstructing surfaceScalarFields

        phi
        phi_0

Reconstructing point fields

No point fields

No lagrangian fields

No FA fields

Time = 116

Reconstructing FV fields

    Reconstructing volScalarFields

        k
        k_0
        nut
        p
        yPlus

    Reconstructing volVectorFields

        U
        U_0

    Reconstructing surfaceScalarFields

        phi
        phi_0

Reconstructing point fields

No point fields

No lagrangian fields

No FA fields

Time = 118

Reconstructing FV fields

    Reconstructing volScalarFields

        k
        k_0
        nut
        p
        yPlus

    Reconstructing volVectorFields

        U
        U_0

    Reconstructing surfaceScalarFields

        phi
        phi_0

Reconstructing point fields

No point fields

No lagrangian fields

No FA fields

Time = 120

Reconstructing FV fields

    Reconstructing volScalarFields

        k
        k_0
        nut
        p
        yPlus

    Reconstructing volVectorFields

        U
        U_0

    Reconstructing surfaceScalarFields

        phi
        phi_0

Reconstructing point fields

No point fields

No lagrangian fields

No FA fields

Time = 122

Reconstructing FV fields

    Reconstructing volScalarFields

        k
        k_0
        nut
        p
        yPlus

    Reconstructing volVectorFields

        U
        U_0

    Reconstructing surfaceScalarFields

        phi
        phi_0

Reconstructing point fields

No point fields

No lagrangian fields

No FA fields

Time = 124

Reconstructing FV fields

    Reconstructing volScalarFields

        k
        k_0
        nut
        p
        yPlus

    Reconstructing volVectorFields

        U
        U_0

    Reconstructing surfaceScalarFields

        phi
        phi_0

Reconstructing point fields

No point fields

No lagrangian fields

No FA fields

Time = 126

Reconstructing FV fields

    Reconstructing volScalarFields

        k
        k_0
        nut
        p
        yPlus

    Reconstructing volVectorFields

        U
        U_0

    Reconstructing surfaceScalarFields

        phi
        phi_0

Reconstructing point fields

No point fields

No lagrangian fields

No FA fields

Time = 128

Reconstructing FV fields

    Reconstructing volScalarFields

        k
        k_0
        nut
        p
        yPlus

    Reconstructing volVectorFields

        U
        U_0

    Reconstructing surfaceScalarFields

        phi
        phi_0

Reconstructing point fields

No point fields

No lagrangian fields

No FA fields

Time = 130

Reconstructing FV fields

    Reconstructing volScalarFields

        k
        k_0
        nut
        p
        yPlus

    Reconstructing volVectorFields

        U
        U_0

    Reconstructing surfaceScalarFields

        phi
        phi_0

Reconstructing point fields

No point fields

No lagrangian fields

No FA fields

Time = 132

Reconstructing FV fields

    Reconstructing volScalarFields

        k
        k_0
        nut
        p
        yPlus

    Reconstructing volVectorFields

        U
        U_0

    Reconstructing surfaceScalarFields

        phi
        phi_0

Reconstructing point fields

No point fields

No lagrangian fields

No FA fields

Time = 134

Reconstructing FV fields

    Reconstructing volScalarFields

        k
        k_0
        nut
        p
        yPlus

    Reconstructing volVectorFields

        U
        U_0

    Reconstructing surfaceScalarFields

        phi
        phi_0

Reconstructing point fields

No point fields

No lagrangian fields

No FA fields

Time = 136

Reconstructing FV fields

    Reconstructing volScalarFields

        k
        k_0
        nut
        p
        yPlus

    Reconstructing volVectorFields

        U
        U_0

    Reconstructing surfaceScalarFields

        phi
        phi_0

Reconstructing point fields

No point fields

No lagrangian fields

No FA fields

Time = 138

Reconstructing FV fields

    Reconstructing volScalarFields

        k
        k_0
        nut
        p
        yPlus

    Reconstructing volVectorFields

        U
        U_0

    Reconstructing surfaceScalarFields

        phi
        phi_0

Reconstructing point fields

No point fields

No lagrangian fields

No FA fields

Time = 140

Reconstructing FV fields

    Reconstructing volScalarFields

        k
        k_0
        nut
        p
        yPlus

    Reconstructing volVectorFields

        U
        U_0

    Reconstructing surfaceScalarFields

        phi
        phi_0

Reconstructing point fields

No point fields

No lagrangian fields

No FA fields

Time = 142

Reconstructing FV fields

    Reconstructing volScalarFields

        k
        k_0
        nut
        p
        yPlus

    Reconstructing volVectorFields

        U
        U_0

    Reconstructing surfaceScalarFields

        phi
        phi_0

Reconstructing point fields

No point fields

No lagrangian fields

No FA fields

Time = 144

Reconstructing FV fields

    Reconstructing volScalarFields

        k
        k_0
        nut
        p
        yPlus

    Reconstructing volVectorFields

        U
        U_0

    Reconstructing surfaceScalarFields

        phi
        phi_0

Reconstructing point fields

No point fields

No lagrangian fields

No FA fields

Time = 146

Reconstructing FV fields

    Reconstructing volScalarFields

        k
        k_0
        nut
        p
        yPlus

    Reconstructing volVectorFields

        U
        U_0

    Reconstructing surfaceScalarFields

        phi
        phi_0

Reconstructing point fields

No point fields

No lagrangian fields

No FA fields

Time = 148

Reconstructing FV fields

    Reconstructing volScalarFields

        k
        k_0
        nut
        p
        yPlus

    Reconstructing volVectorFields

        U
        U_0

    Reconstructing surfaceScalarFields

        phi
        phi_0

Reconstructing point fields

No point fields

No lagrangian fields

No FA fields

Time = 150

Reconstructing FV fields

    Reconstructing volScalarFields

        k
        k_0
        nut
        p
        yPlus

    Reconstructing volVectorFields

        U
        U_0

    Reconstructing surfaceScalarFields

        phi
        phi_0

Reconstructing point fields

No point fields

No lagrangian fields

No FA fields

Time = 152

Reconstructing FV fields

    Reconstructing volScalarFields

        k
        k_0
        nut
        p
        yPlus

    Reconstructing volVectorFields

        U
        U_0

    Reconstructing surfaceScalarFields

        phi
        phi_0

Reconstructing point fields

No point fields

No lagrangian fields

No FA fields

Time = 154

Reconstructing FV fields

    Reconstructing volScalarFields

        k
        k_0
        nut
        p
        yPlus

    Reconstructing volVectorFields

        U
        U_0

    Reconstructing surfaceScalarFields

        phi
        phi_0

Reconstructing point fields

No point fields

No lagrangian fields

No FA fields

Time = 156

Reconstructing FV fields

    Reconstructing volScalarFields

        k
        k_0
        nut
        p
        yPlus

    Reconstructing volVectorFields

        U
        U_0

    Reconstructing surfaceScalarFields

        phi
        phi_0

Reconstructing point fields

No point fields

No lagrangian fields

No FA fields

Time = 158

Reconstructing FV fields

    Reconstructing volScalarFields

        k
        k_0
        nut
        p
        yPlus

    Reconstructing volVectorFields

        U
        U_0

    Reconstructing surfaceScalarFields

        phi
        phi_0

Reconstructing point fields

No point fields

No lagrangian fields

No FA fields

Time = 160

Reconstructing FV fields

    Reconstructing volScalarFields

        k
        k_0
        nut
        p
        yPlus

    Reconstructing volVectorFields

        U
        U_0

    Reconstructing surfaceScalarFields

        phi
        phi_0

Reconstructing point fields

No point fields

No lagrangian fields

No FA fields

Time = 162

Reconstructing FV fields

    Reconstructing volScalarFields

        k
        k_0
        nut
        p
        yPlus

    Reconstructing volVectorFields

        U
        U_0

    Reconstructing surfaceScalarFields

        phi
        phi_0

Reconstructing point fields

No point fields

No lagrangian fields

No FA fields

Time = 164

Reconstructing FV fields

    Reconstructing volScalarFields

        k
        k_0
        nut
        p
        yPlus

    Reconstructing volVectorFields

        U
        U_0

    Reconstructing surfaceScalarFields

        phi
        phi_0

Reconstructing point fields

No point fields

No lagrangian fields

No FA fields

Time = 166

Reconstructing FV fields

    Reconstructing volScalarFields

        k
        k_0
        nut
        p
        yPlus

    Reconstructing volVectorFields

        U
        U_0

    Reconstructing surfaceScalarFields

        phi
        phi_0

Reconstructing point fields

No point fields

No lagrangian fields

No FA fields

Time = 168

Reconstructing FV fields

    Reconstructing volScalarFields

        k
        k_0
        nut
        p
        yPlus

    Reconstructing volVectorFields

        U
        U_0

    Reconstructing surfaceScalarFields

        phi
        phi_0

Reconstructing point fields

No point fields

No lagrangian fields

No FA fields

Time = 170

Reconstructing FV fields

    Reconstructing volScalarFields

        k
        k_0
        nut
        p
        yPlus

    Reconstructing volVectorFields

        U
        U_0

    Reconstructing surfaceScalarFields

        phi
        phi_0

Reconstructing point fields

No point fields

No lagrangian fields

No FA fields

Time = 172

Reconstructing FV fields

    Reconstructing volScalarFields

        k
        k_0
        nut
        p
        yPlus

    Reconstructing volVectorFields

        U
        U_0

    Reconstructing surfaceScalarFields

        phi
        phi_0

Reconstructing point fields

No point fields

No lagrangian fields

No FA fields

Time = 174

Reconstructing FV fields

    Reconstructing volScalarFields

        k
        k_0
        nut
        p
        yPlus

    Reconstructing volVectorFields

        U
        U_0

    Reconstructing surfaceScalarFields

        phi
        phi_0

Reconstructing point fields

No point fields

No lagrangian fields

No FA fields

Time = 176

Reconstructing FV fields

    Reconstructing volScalarFields

        k
        k_0
        nut
        p
        yPlus

    Reconstructing volVectorFields

        U
        U_0

    Reconstructing surfaceScalarFields

        phi
        phi_0

Reconstructing point fields

No point fields

No lagrangian fields

No FA fields

Time = 178

Reconstructing FV fields

    Reconstructing volScalarFields

        k
        k_0
        nut
        p
        yPlus

    Reconstructing volVectorFields

        U
        U_0

    Reconstructing surfaceScalarFields

        phi
        phi_0

Reconstructing point fields

No point fields

No lagrangian fields

No FA fields

Time = 180

Reconstructing FV fields

    Reconstructing volScalarFields

        k
        k_0
        nut
        p
        yPlus

    Reconstructing volVectorFields

        U
        U_0

    Reconstructing surfaceScalarFields

        phi
        phi_0

Reconstructing point fields

No point fields

No lagrangian fields

No FA fields

Time = 182

Reconstructing FV fields

    Reconstructing volScalarFields

        k
        k_0
        nut
        p
        yPlus

    Reconstructing volVectorFields

        U
        U_0

    Reconstructing surfaceScalarFields

        phi
        phi_0

Reconstructing point fields

No point fields

No lagrangian fields

No FA fields

Time = 184

Reconstructing FV fields

    Reconstructing volScalarFields

        k
        k_0
        nut
        p
        yPlus

    Reconstructing volVectorFields

        U
        U_0

    Reconstructing surfaceScalarFields

        phi
        phi_0

Reconstructing point fields

No point fields

No lagrangian fields

No FA fields

Time = 186

Reconstructing FV fields

    Reconstructing volScalarFields

        k
        k_0
        nut
        p
        yPlus

    Reconstructing volVectorFields

        U
        U_0

    Reconstructing surfaceScalarFields

        phi
        phi_0

Reconstructing point fields

No point fields

No lagrangian fields

No FA fields

Time = 188

Reconstructing FV fields

    Reconstructing volScalarFields

        k
        k_0
        nut
        p
        yPlus

    Reconstructing volVectorFields

        U
        U_0

    Reconstructing surfaceScalarFields

        phi
        phi_0

Reconstructing point fields

No point fields

No lagrangian fields

No FA fields

Time = 190

Reconstructing FV fields

    Reconstructing volScalarFields

        k
        k_0
        nut
        p
        yPlus

    Reconstructing volVectorFields

        U
        U_0

    Reconstructing surfaceScalarFields

        phi
        phi_0

Reconstructing point fields

No point fields

No lagrangian fields

No FA fields

Time = 192

Reconstructing FV fields

    Reconstructing volScalarFields

        k
        k_0
        nut
        p
        yPlus

    Reconstructing volVectorFields

        U
        U_0

    Reconstructing surfaceScalarFields

        phi
        phi_0

Reconstructing point fields

No point fields

No lagrangian fields

No FA fields

Time = 194

Reconstructing FV fields

    Reconstructing volScalarFields

        k
        k_0
        nut
        p
        yPlus

    Reconstructing volVectorFields

        U
        U_0

    Reconstructing surfaceScalarFields

        phi
        phi_0

Reconstructing point fields

No point fields

No lagrangian fields

No FA fields

Time = 196

Reconstructing FV fields

    Reconstructing volScalarFields

        k
        k_0
        nut
        p
        yPlus

    Reconstructing volVectorFields

        U
        U_0

    Reconstructing surfaceScalarFields

        phi
        phi_0

Reconstructing point fields

No point fields

No lagrangian fields

No FA fields

Time = 198

Reconstructing FV fields

    Reconstructing volScalarFields

        k
        k_0
        nut
        p
        yPlus

    Reconstructing volVectorFields

        U
        U_0

    Reconstructing surfaceScalarFields

        phi
        phi_0

Reconstructing point fields

No point fields

No lagrangian fields

No FA fields

Time = 200

Reconstructing FV fields

    Reconstructing volScalarFields

        k
        k_0
        nut
        p
        yPlus

    Reconstructing volVectorFields

        U
        U_0

    Reconstructing surfaceScalarFields

        phi
        phi_0

Reconstructing point fields

No point fields

No lagrangian fields

No FA fields

Time = 202

Reconstructing FV fields

    Reconstructing volScalarFields

        k
        k_0
        nut
        p
        yPlus

    Reconstructing volVectorFields

        U
        U_0

    Reconstructing surfaceScalarFields

        phi
        phi_0

Reconstructing point fields

No point fields

No lagrangian fields

No FA fields

Time = 204

Reconstructing FV fields

    Reconstructing volScalarFields

        k
        k_0
        nut
        p
        yPlus

    Reconstructing volVectorFields

        U
        U_0

    Reconstructing surfaceScalarFields

        phi
        phi_0

Reconstructing point fields

No point fields

No lagrangian fields

No FA fields

Time = 206

Reconstructing FV fields

    Reconstructing volScalarFields

        k
        k_0
        nut
        p
        yPlus

    Reconstructing volVectorFields

        U
        U_0

    Reconstructing surfaceScalarFields

        phi
        phi_0

Reconstructing point fields

No point fields

No lagrangian fields

No FA fields

Time = 208

Reconstructing FV fields

    Reconstructing volScalarFields

        k
        k_0
        nut
        p
        yPlus

    Reconstructing volVectorFields

        U
        U_0

    Reconstructing surfaceScalarFields

        phi
        phi_0

Reconstructing point fields

No point fields

No lagrangian fields

No FA fields

Time = 210

Reconstructing FV fields

    Reconstructing volScalarFields

        k
        k_0
        nut
        p
        yPlus

    Reconstructing volVectorFields

        U
        U_0

    Reconstructing surfaceScalarFields

        phi
        phi_0

Reconstructing point fields

No point fields

No lagrangian fields

No FA fields

Time = 212

Reconstructing FV fields

    Reconstructing volScalarFields

        k
        k_0
        nut
        p
        yPlus

    Reconstructing volVectorFields

        U
        U_0

    Reconstructing surfaceScalarFields

        phi
        phi_0

Reconstructing point fields

No point fields

No lagrangian fields

No FA fields

Time = 214

Reconstructing FV fields

    Reconstructing volScalarFields

        k
        k_0
        nut
        p
        yPlus

    Reconstructing volVectorFields

        U
        U_0

    Reconstructing surfaceScalarFields

        phi
        phi_0

Reconstructing point fields

No point fields

No lagrangian fields

No FA fields

Time = 216

Reconstructing FV fields

    Reconstructing volScalarFields

        k
        k_0
        nut
        p
        yPlus

    Reconstructing volVectorFields

        U
        U_0

    Reconstructing surfaceScalarFields

        phi
        phi_0

Reconstructing point fields

No point fields

No lagrangian fields

No FA fields

Time = 218

Reconstructing FV fields

    Reconstructing volScalarFields

        k
        k_0
        nut
        p
        yPlus

    Reconstructing volVectorFields

        U
        U_0

    Reconstructing surfaceScalarFields

        phi
        phi_0

Reconstructing point fields

No point fields

No lagrangian fields

No FA fields

Time = 220

Reconstructing FV fields

    Reconstructing volScalarFields

        k
        k_0
        nut
        p
        yPlus

    Reconstructing volVectorFields

        U
        U_0

    Reconstructing surfaceScalarFields

        phi
        phi_0

Reconstructing point fields

No point fields

No lagrangian fields

No FA fields

Time = 222

Reconstructing FV fields

    Reconstructing volScalarFields

        k
        k_0
        nut
        p
        yPlus

    Reconstructing volVectorFields

        U
        U_0

    Reconstructing surfaceScalarFields

        phi
        phi_0

Reconstructing point fields

No point fields

No lagrangian fields

No FA fields

Time = 224

Reconstructing FV fields

    Reconstructing volScalarFields

        k
        k_0
        nut
        p
        yPlus

    Reconstructing volVectorFields

        U
        U_0

    Reconstructing surfaceScalarFields

        phi
        phi_0

Reconstructing point fields

No point fields

No lagrangian fields

No FA fields

Time = 226

Reconstructing FV fields

    Reconstructing volScalarFields

        k
        k_0
        nut
        p
        yPlus

    Reconstructing volVectorFields

        U
        U_0

    Reconstructing surfaceScalarFields

        phi
        phi_0

Reconstructing point fields

No point fields

No lagrangian fields

No FA fields

Time = 228

Reconstructing FV fields

    Reconstructing volScalarFields

        k
        k_0
        nut
        p
        yPlus

    Reconstructing volVectorFields

        U
        U_0

    Reconstructing surfaceScalarFields

        phi
        phi_0

Reconstructing point fields

No point fields

No lagrangian fields

No FA fields

Time = 230

Reconstructing FV fields

    Reconstructing volScalarFields

        k
        k_0
        nut
        p
        yPlus

    Reconstructing volVectorFields

        U
        U_0

    Reconstructing surfaceScalarFields

        phi
        phi_0

Reconstructing point fields

No point fields

No lagrangian fields

No FA fields

Time = 232

Reconstructing FV fields

    Reconstructing volScalarFields

        k
        k_0
        nut
        p
        yPlus

    Reconstructing volVectorFields

        U
        U_0

    Reconstructing surfaceScalarFields

        phi
        phi_0

Reconstructing point fields

No point fields

No lagrangian fields

No FA fields

Time = 234

Reconstructing FV fields

    Reconstructing volScalarFields

        k
        k_0
        nut
        p
        yPlus

    Reconstructing volVectorFields

        U
        U_0

    Reconstructing surfaceScalarFields

        phi
        phi_0

Reconstructing point fields

No point fields

No lagrangian fields

No FA fields

Time = 236

Reconstructing FV fields

    Reconstructing volScalarFields

        k
        k_0
        nut
        p
        yPlus

    Reconstructing volVectorFields

        U
        U_0

    Reconstructing surfaceScalarFields

        phi
        phi_0

Reconstructing point fields

No point fields

No lagrangian fields

No FA fields

Time = 238

Reconstructing FV fields

    Reconstructing volScalarFields

        k
        k_0
        nut
        p
        yPlus

    Reconstructing volVectorFields

        U
        U_0

    Reconstructing surfaceScalarFields

        phi
        phi_0

Reconstructing point fields

No point fields

No lagrangian fields

No FA fields

Time = 240

Reconstructing FV fields

    Reconstructing volScalarFields

        k
        k_0
        nut
        p
        yPlus

    Reconstructing volVectorFields

        U
        U_0

    Reconstructing surfaceScalarFields

        phi
        phi_0

Reconstructing point fields

No point fields

No lagrangian fields

No FA fields

Time = 242

Reconstructing FV fields

    Reconstructing volScalarFields

        k
        k_0
        nut
        p
        yPlus

    Reconstructing volVectorFields

        U
        U_0

    Reconstructing surfaceScalarFields

        phi
        phi_0

Reconstructing point fields

No point fields

No lagrangian fields

No FA fields

Time = 244

Reconstructing FV fields

    Reconstructing volScalarFields

        k
        k_0
        nut
        p
        yPlus

    Reconstructing volVectorFields

        U
        U_0

    Reconstructing surfaceScalarFields

        phi
        phi_0

Reconstructing point fields

No point fields

No lagrangian fields

No FA fields

Time = 246

Reconstructing FV fields

    Reconstructing volScalarFields

        k
        k_0
        nut
        p
        yPlus

    Reconstructing volVectorFields

        U
        U_0

    Reconstructing surfaceScalarFields

        phi
        phi_0

Reconstructing point fields

No point fields

No lagrangian fields

No FA fields

Time = 248

Reconstructing FV fields

    Reconstructing volScalarFields

        k
        k_0
        nut
        p
        yPlus

    Reconstructing volVectorFields

        U
        U_0

    Reconstructing surfaceScalarFields

        phi
        phi_0

Reconstructing point fields

No point fields

No lagrangian fields

No FA fields

Time = 250

Reconstructing FV fields

    Reconstructing volScalarFields

        k
        k_0
        nut
        p
        yPlus

    Reconstructing volVectorFields

        U
        U_0

    Reconstructing surfaceScalarFields

        phi
        phi_0

Reconstructing point fields

No point fields

No lagrangian fields

No FA fields

Time = 252

Reconstructing FV fields

    Reconstructing volScalarFields

        k
        k_0
        nut
        p
        yPlus

    Reconstructing volVectorFields

        U
        U_0

    Reconstructing surfaceScalarFields

        phi
        phi_0

Reconstructing point fields

No point fields

No lagrangian fields

No FA fields

Time = 254

Reconstructing FV fields

    Reconstructing volScalarFields

        k
        k_0
        nut
        p
        yPlus

    Reconstructing volVectorFields

        U
        U_0

    Reconstructing surfaceScalarFields

        phi
        phi_0

Reconstructing point fields

No point fields

No lagrangian fields

No FA fields

Time = 256

Reconstructing FV fields

    Reconstructing volScalarFields

        k
        k_0
        nut
        p
        yPlus

    Reconstructing volVectorFields

        U
        U_0

    Reconstructing surfaceScalarFields

        phi
        phi_0

Reconstructing point fields

No point fields

No lagrangian fields

No FA fields

Time = 258

Reconstructing FV fields

    Reconstructing volScalarFields

        k
        k_0
        nut
        p
        yPlus

    Reconstructing volVectorFields

        U
        U_0

    Reconstructing surfaceScalarFields

        phi
        phi_0

Reconstructing point fields

No point fields

No lagrangian fields

No FA fields

Time = 260

Reconstructing FV fields

    Reconstructing volScalarFields

        k
        k_0
        nut
        p
        yPlus

    Reconstructing volVectorFields

        U
        U_0

    Reconstructing surfaceScalarFields

        phi
        phi_0

Reconstructing point fields

No point fields

No lagrangian fields

No FA fields

Time = 262

Reconstructing FV fields

    Reconstructing volScalarFields

        k
        k_0
        nut
        p
        yPlus

    Reconstructing volVectorFields

        U
        U_0

    Reconstructing surfaceScalarFields

        phi
        phi_0

Reconstructing point fields

No point fields

No lagrangian fields

No FA fields

Time = 264

Reconstructing FV fields

    Reconstructing volScalarFields

        k
        k_0
        nut
        p
        yPlus

    Reconstructing volVectorFields

        U
        U_0

    Reconstructing surfaceScalarFields

        phi
        phi_0

Reconstructing point fields

No point fields

No lagrangian fields

No FA fields

Time = 266

Reconstructing FV fields

    Reconstructing volScalarFields

        k
        k_0
        nut
        p
        yPlus

    Reconstructing volVectorFields

        U
        U_0

    Reconstructing surfaceScalarFields

        phi
        phi_0

Reconstructing point fields

No point fields

No lagrangian fields

No FA fields

Time = 268

Reconstructing FV fields

    Reconstructing volScalarFields

        k
        k_0
        nut
        p
        yPlus

    Reconstructing volVectorFields

        U
        U_0

    Reconstructing surfaceScalarFields

        phi
        phi_0

Reconstructing point fields

No point fields

No lagrangian fields

No FA fields

Time = 270

Reconstructing FV fields

    Reconstructing volScalarFields

        k
        k_0
        nut
        p
        yPlus

    Reconstructing volVectorFields

        U
        U_0

    Reconstructing surfaceScalarFields

        phi
        phi_0

Reconstructing point fields

No point fields

No lagrangian fields

No FA fields

Time = 272

Reconstructing FV fields

    Reconstructing volScalarFields

        k
        k_0
        nut
        p
        yPlus

    Reconstructing volVectorFields

        U
        U_0

    Reconstructing surfaceScalarFields

        phi
        phi_0

Reconstructing point fields

No point fields

No lagrangian fields

No FA fields

Time = 274

Reconstructing FV fields

    Reconstructing volScalarFields

        k
        k_0
        nut
        p
        yPlus

    Reconstructing volVectorFields

        U
        U_0

    Reconstructing surfaceScalarFields

        phi
        phi_0

Reconstructing point fields

No point fields

No lagrangian fields

No FA fields

Time = 276

Reconstructing FV fields

    Reconstructing volScalarFields

        k
        k_0
        nut
        p
        yPlus

    Reconstructing volVectorFields

        U
        U_0

    Reconstructing surfaceScalarFields

        phi
        phi_0

Reconstructing point fields

No point fields

No lagrangian fields

No FA fields

Time = 278

Reconstructing FV fields

    Reconstructing volScalarFields

        k
        k_0
        nut
        p
        yPlus

    Reconstructing volVectorFields

        U
        U_0

    Reconstructing surfaceScalarFields

        phi
        phi_0

Reconstructing point fields

No point fields

No lagrangian fields

No FA fields

Time = 280

Reconstructing FV fields

    Reconstructing volScalarFields

        k
        k_0
        nut
        p
        yPlus

    Reconstructing volVectorFields

        U
        U_0

    Reconstructing surfaceScalarFields

        phi
        phi_0

Reconstructing point fields

No point fields

No lagrangian fields

No FA fields

Time = 282

Reconstructing FV fields

    Reconstructing volScalarFields

        k
        k_0
        nut
        p
        yPlus

    Reconstructing volVectorFields

        U
        U_0

    Reconstructing surfaceScalarFields

        phi
        phi_0

Reconstructing point fields

No point fields

No lagrangian fields

No FA fields

Time = 284

Reconstructing FV fields

    Reconstructing volScalarFields

        k
        k_0
        nut
        p
        yPlus

    Reconstructing volVectorFields

        U
        U_0

    Reconstructing surfaceScalarFields

        phi
        phi_0

Reconstructing point fields

No point fields

No lagrangian fields

No FA fields

Time = 286

Reconstructing FV fields

    Reconstructing volScalarFields

        k
        k_0
        nut
        p
        yPlus

    Reconstructing volVectorFields

        U
        U_0

    Reconstructing surfaceScalarFields

        phi
        phi_0

Reconstructing point fields

No point fields

No lagrangian fields

No FA fields

Time = 288

Reconstructing FV fields

    Reconstructing volScalarFields

        k
        k_0
        nut
        p
        yPlus

    Reconstructing volVectorFields

        U
        U_0

    Reconstructing surfaceScalarFields

        phi
        phi_0

Reconstructing point fields

No point fields

No lagrangian fields

No FA fields

Time = 290

Reconstructing FV fields

    Reconstructing volScalarFields

        k
        k_0
        nut
        p
        yPlus

    Reconstructing volVectorFields

        U
        U_0

    Reconstructing surfaceScalarFields

        phi
        phi_0

Reconstructing point fields

No point fields

No lagrangian fields

No FA fields

Time = 292

Reconstructing FV fields

    Reconstructing volScalarFields

        k
        k_0
        nut
        p
        yPlus

    Reconstructing volVectorFields

        U
        U_0

    Reconstructing surfaceScalarFields

        phi
        phi_0

Reconstructing point fields

No point fields

No lagrangian fields

No FA fields

Time = 294

Reconstructing FV fields

    Reconstructing volScalarFields

        k
        k_0
        nut
        p
        yPlus

    Reconstructing volVectorFields

        U
        U_0

    Reconstructing surfaceScalarFields

        phi
        phi_0

Reconstructing point fields

No point fields

No lagrangian fields

No FA fields

Time = 296

Reconstructing FV fields

    Reconstructing volScalarFields

        k
        k_0
        nut
        p
        yPlus

    Reconstructing volVectorFields

        U
        U_0

    Reconstructing surfaceScalarFields

        phi
        phi_0

Reconstructing point fields

No point fields

No lagrangian fields

No FA fields

Time = 298

Reconstructing FV fields

    Reconstructing volScalarFields

        k
        k_0
        nut
        p
        yPlus

    Reconstructing volVectorFields

        U
        U_0

    Reconstructing surfaceScalarFields

        phi
        phi_0

Reconstructing point fields

No point fields

No lagrangian fields

No FA fields

Time = 300

Reconstructing FV fields

    Reconstructing volScalarFields

        k
        k_0
        nut
        p
        yPlus

    Reconstructing volVectorFields

        U
        U_0

    Reconstructing surfaceScalarFields

        phi
        phi_0

Reconstructing point fields

No point fields

No lagrangian fields

No FA fields

Time = 302

Reconstructing FV fields

    Reconstructing volScalarFields

        k
        k_0
        nut
        p
        yPlus

    Reconstructing volVectorFields

        U
        U_0

    Reconstructing surfaceScalarFields

        phi
        phi_0

Reconstructing point fields

No point fields

No lagrangian fields

No FA fields

Time = 304

Reconstructing FV fields

    Reconstructing volScalarFields

        k
        k_0
        nut
        p
        yPlus

    Reconstructing volVectorFields

        U
        U_0

    Reconstructing surfaceScalarFields

        phi
        phi_0

Reconstructing point fields

No point fields

No lagrangian fields

No FA fields

Time = 306

Reconstructing FV fields

    Reconstructing volScalarFields

        k
        k_0
        nut
        p
        yPlus

    Reconstructing volVectorFields

        U
        U_0

    Reconstructing surfaceScalarFields

        phi
        phi_0

Reconstructing point fields

No point fields

No lagrangian fields

No FA fields

Time = 308

Reconstructing FV fields

    Reconstructing volScalarFields

        k
        k_0
        nut
        p
        yPlus

    Reconstructing volVectorFields

        U
        U_0

    Reconstructing surfaceScalarFields

        phi
        phi_0

Reconstructing point fields

No point fields

No lagrangian fields

No FA fields

Time = 310

Reconstructing FV fields

    Reconstructing volScalarFields

        k
        k_0
        nut
        p
        yPlus

    Reconstructing volVectorFields

        U
        U_0

    Reconstructing surfaceScalarFields

        phi
        phi_0

Reconstructing point fields

No point fields

No lagrangian fields

No FA fields

Time = 312

Reconstructing FV fields

    Reconstructing volScalarFields

        k
        k_0
        nut
        p
        yPlus

    Reconstructing volVectorFields

        U
        U_0

    Reconstructing surfaceScalarFields

        phi
        phi_0

Reconstructing point fields

No point fields

No lagrangian fields

No FA fields

Time = 314

Reconstructing FV fields

    Reconstructing volScalarFields

        k
        k_0
        nut
        p
        yPlus

    Reconstructing volVectorFields

        U
        U_0

    Reconstructing surfaceScalarFields

        phi
        phi_0

Reconstructing point fields

No point fields

No lagrangian fields

No FA fields

Time = 316

Reconstructing FV fields

    Reconstructing volScalarFields

        k
        k_0
        nut
        p
        yPlus

    Reconstructing volVectorFields

        U
        U_0

    Reconstructing surfaceScalarFields

        phi
        phi_0

Reconstructing point fields

No point fields

No lagrangian fields

No FA fields

Time = 318

Reconstructing FV fields

    Reconstructing volScalarFields

        k
        k_0
        nut
        p
        yPlus

    Reconstructing volVectorFields

        U
        U_0

    Reconstructing surfaceScalarFields

        phi
        phi_0

Reconstructing point fields

No point fields

No lagrangian fields

No FA fields

Time = 320

Reconstructing FV fields

    Reconstructing volScalarFields

        k
        k_0
        nut
        p
        yPlus

    Reconstructing volVectorFields

        U
        U_0

    Reconstructing surfaceScalarFields

        phi
        phi_0

Reconstructing point fields

No point fields

No lagrangian fields

No FA fields

Time = 322

Reconstructing FV fields

    Reconstructing volScalarFields

        k
        k_0
        nut
        p
        yPlus

    Reconstructing volVectorFields

        U
        U_0

    Reconstructing surfaceScalarFields

        phi
        phi_0

Reconstructing point fields

No point fields

No lagrangian fields

No FA fields

Time = 324

Reconstructing FV fields

    Reconstructing volScalarFields

        k
        k_0
        nut
        p
        yPlus

    Reconstructing volVectorFields

        U
        U_0

    Reconstructing surfaceScalarFields

        phi
        phi_0

Reconstructing point fields

No point fields

No lagrangian fields

No FA fields

Time = 326

Reconstructing FV fields

    Reconstructing volScalarFields

        k
        k_0
        nut
        p
        yPlus

    Reconstructing volVectorFields

        U
        U_0

    Reconstructing surfaceScalarFields

        phi
        phi_0

Reconstructing point fields

No point fields

No lagrangian fields

No FA fields

Time = 328

Reconstructing FV fields

    Reconstructing volScalarFields

        k
        k_0
        nut
        p
        yPlus

    Reconstructing volVectorFields

        U
        U_0

    Reconstructing surfaceScalarFields

        phi
        phi_0

Reconstructing point fields

No point fields

No lagrangian fields

No FA fields

Time = 330

Reconstructing FV fields

    Reconstructing volScalarFields

        k
        k_0
        nut
        p
        yPlus

    Reconstructing volVectorFields

        U
        U_0

    Reconstructing surfaceScalarFields

        phi
        phi_0

Reconstructing point fields

No point fields

No lagrangian fields

No FA fields

Time = 332

Reconstructing FV fields

    Reconstructing volScalarFields

        k
        k_0
        nut
        p
        yPlus

    Reconstructing volVectorFields

        U
        U_0

    Reconstructing surfaceScalarFields

        phi
        phi_0

Reconstructing point fields

No point fields

No lagrangian fields

No FA fields

Time = 334

Reconstructing FV fields

    Reconstructing volScalarFields

        k
        k_0
        nut
        p
        yPlus

    Reconstructing volVectorFields

        U
        U_0

    Reconstructing surfaceScalarFields

        phi
        phi_0

Reconstructing point fields

No point fields

No lagrangian fields

No FA fields

Time = 336

Reconstructing FV fields

    Reconstructing volScalarFields

        k
        k_0
        nut
        p
        yPlus

    Reconstructing volVectorFields

        U
        U_0

    Reconstructing surfaceScalarFields

        phi
        phi_0

Reconstructing point fields

No point fields

No lagrangian fields

No FA fields

Time = 338

Reconstructing FV fields

    Reconstructing volScalarFields

        k
        k_0
        nut
        p
        yPlus

    Reconstructing volVectorFields

        U
        U_0

    Reconstructing surfaceScalarFields

        phi
        phi_0

Reconstructing point fields

No point fields

No lagrangian fields

No FA fields

Time = 340

Reconstructing FV fields

    Reconstructing volScalarFields

        k
        k_0
        nut
        p
        yPlus

    Reconstructing volVectorFields

        U
        U_0

    Reconstructing surfaceScalarFields

        phi
        phi_0

Reconstructing point fields

No point fields

No lagrangian fields

No FA fields

Time = 342

Reconstructing FV fields

    Reconstructing volScalarFields

        k
        k_0
        nut
        p
        yPlus

    Reconstructing volVectorFields

        U
        U_0

    Reconstructing surfaceScalarFields

        phi
        phi_0

Reconstructing point fields

No point fields

No lagrangian fields

No FA fields

Time = 344

Reconstructing FV fields

    Reconstructing volScalarFields

        k
        k_0
        nut
        p
        yPlus

    Reconstructing volVectorFields

        U
        U_0

    Reconstructing surfaceScalarFields

        phi
        phi_0

Reconstructing point fields

No point fields

No lagrangian fields

No FA fields

Time = 346

Reconstructing FV fields

    Reconstructing volScalarFields

        k
        k_0
        nut
        p
        yPlus

    Reconstructing volVectorFields

        U
        U_0

    Reconstructing surfaceScalarFields

        phi
        phi_0

Reconstructing point fields

No point fields

No lagrangian fields

No FA fields

Time = 348

Reconstructing FV fields

    Reconstructing volScalarFields

        k
        k_0
        nut
        p
        yPlus

    Reconstructing volVectorFields

        U
        U_0

    Reconstructing surfaceScalarFields

        phi
        phi_0

Reconstructing point fields

No point fields

No lagrangian fields

No FA fields

Time = 350

Reconstructing FV fields

    Reconstructing volScalarFields

        k
        k_0
        nut
        p
        yPlus

    Reconstructing volVectorFields

        U
        U_0

    Reconstructing surfaceScalarFields

        phi
        phi_0

Reconstructing point fields

No point fields

No lagrangian fields

No FA fields

Time = 352

Reconstructing FV fields

    Reconstructing volScalarFields

        k
        k_0
        nut
        p
        yPlus

    Reconstructing volVectorFields

        U
        U_0

    Reconstructing surfaceScalarFields

        phi
        phi_0

Reconstructing point fields

No point fields

No lagrangian fields

No FA fields

Time = 354

Reconstructing FV fields

    Reconstructing volScalarFields

        k
        k_0
        nut
        p
        yPlus

    Reconstructing volVectorFields

        U
        U_0

    Reconstructing surfaceScalarFields

        phi
        phi_0

Reconstructing point fields

No point fields

No lagrangian fields

No FA fields

Time = 356

Reconstructing FV fields

    Reconstructing volScalarFields

        k
        k_0
        nut
        p
        yPlus

    Reconstructing volVectorFields

        U
        U_0

    Reconstructing surfaceScalarFields

        phi
        phi_0

Reconstructing point fields

No point fields

No lagrangian fields

No FA fields

Time = 358

Reconstructing FV fields

    Reconstructing volScalarFields

        k
        k_0
        nut
        p
        yPlus

    Reconstructing volVectorFields

        U
        U_0

    Reconstructing surfaceScalarFields

        phi
        phi_0

Reconstructing point fields

No point fields

No lagrangian fields

No FA fields

Time = 360

Reconstructing FV fields

    Reconstructing volScalarFields

        k
        k_0
        nut
        p
        yPlus

    Reconstructing volVectorFields

        U
        U_0

    Reconstructing surfaceScalarFields

        phi
        phi_0

Reconstructing point fields

No point fields

No lagrangian fields

No FA fields

Time = 362

Reconstructing FV fields

    Reconstructing volScalarFields

        k
        k_0
        nut
        p
        yPlus

    Reconstructing volVectorFields

        U
        U_0

    Reconstructing surfaceScalarFields

        phi
        phi_0

Reconstructing point fields

No point fields

No lagrangian fields

No FA fields

Time = 364

Reconstructing FV fields

    Reconstructing volScalarFields

        k
        k_0
        nut
        p
        yPlus

    Reconstructing volVectorFields

        U
        U_0

    Reconstructing surfaceScalarFields

        phi
        phi_0

Reconstructing point fields

No point fields

No lagrangian fields

No FA fields

Time = 366

Reconstructing FV fields

    Reconstructing volScalarFields

        k
        k_0
        nut
        p
        yPlus

    Reconstructing volVectorFields

        U
        U_0

    Reconstructing surfaceScalarFields

        phi
        phi_0

Reconstructing point fields

No point fields

No lagrangian fields

No FA fields

Time = 368

Reconstructing FV fields

    Reconstructing volScalarFields

        k
        k_0
        nut
        p
        yPlus

    Reconstructing volVectorFields

        U
        U_0

    Reconstructing surfaceScalarFields

        phi
        phi_0

Reconstructing point fields

No point fields

No lagrangian fields

No FA fields

Time = 370

Reconstructing FV fields

    Reconstructing volScalarFields

        k
        k_0
        nut
        p
        yPlus

    Reconstructing volVectorFields

        U
        U_0

    Reconstructing surfaceScalarFields

        phi
        phi_0

Reconstructing point fields

No point fields

No lagrangian fields

No FA fields

Time = 372

Reconstructing FV fields

    Reconstructing volScalarFields

        k
        k_0
        nut
        p
        yPlus

    Reconstructing volVectorFields

        U
        U_0

    Reconstructing surfaceScalarFields

        phi
        phi_0

Reconstructing point fields

No point fields

No lagrangian fields

No FA fields

Time = 374

Reconstructing FV fields

    Reconstructing volScalarFields

        k
        k_0
        nut
        p
        yPlus

    Reconstructing volVectorFields

        U
        U_0

    Reconstructing surfaceScalarFields

        phi
        phi_0

Reconstructing point fields

No point fields

No lagrangian fields

No FA fields

Time = 376

Reconstructing FV fields

    Reconstructing volScalarFields

        k
        k_0
        nut
        p
        yPlus

    Reconstructing volVectorFields

        U
        U_0

    Reconstructing surfaceScalarFields

        phi
        phi_0

Reconstructing point fields

No point fields

No lagrangian fields

No FA fields

Time = 378

Reconstructing FV fields

    Reconstructing volScalarFields

        k
        k_0
        nut
        p
        yPlus

    Reconstructing volVectorFields

        U
        U_0

    Reconstructing surfaceScalarFields

        phi
        phi_0

Reconstructing point fields

No point fields

No lagrangian fields

No FA fields

Time = 380

Reconstructing FV fields

    Reconstructing volScalarFields

        k
        k_0
        nut
        p
        yPlus

    Reconstructing volVectorFields

        U
        U_0

    Reconstructing surfaceScalarFields

        phi
        phi_0

Reconstructing point fields

No point fields

No lagrangian fields

No FA fields

Time = 382

Reconstructing FV fields

    Reconstructing volScalarFields

        k
        k_0
        nut
        p
        yPlus

    Reconstructing volVectorFields

        U
        U_0

    Reconstructing surfaceScalarFields

        phi
        phi_0

Reconstructing point fields

No point fields

No lagrangian fields

No FA fields

Time = 384

Reconstructing FV fields

    Reconstructing volScalarFields

        k
        k_0
        nut
        p
        yPlus

    Reconstructing volVectorFields

        U
        U_0

    Reconstructing surfaceScalarFields

        phi
        phi_0

Reconstructing point fields

No point fields

No lagrangian fields

No FA fields

Time = 386

Reconstructing FV fields

    Reconstructing volScalarFields

        k
        k_0
        nut
        p
        yPlus

    Reconstructing volVectorFields

        U
        U_0

    Reconstructing surfaceScalarFields

        phi
        phi_0

Reconstructing point fields

No point fields

No lagrangian fields

No FA fields

Time = 388

Reconstructing FV fields

    Reconstructing volScalarFields

        k
        k_0
        nut
        p
        yPlus

    Reconstructing volVectorFields

        U
        U_0

    Reconstructing surfaceScalarFields

        phi
        phi_0

Reconstructing point fields

No point fields

No lagrangian fields

No FA fields

Time = 390

Reconstructing FV fields

    Reconstructing volScalarFields

        k
        k_0
        nut
        p
        yPlus

    Reconstructing volVectorFields

        U
        U_0

    Reconstructing surfaceScalarFields

        phi
        phi_0

Reconstructing point fields

No point fields

No lagrangian fields

No FA fields

Time = 392

Reconstructing FV fields

    Reconstructing volScalarFields

        k
        k_0
        nut
        p
        yPlus

    Reconstructing volVectorFields

        U
        U_0

    Reconstructing surfaceScalarFields

        phi
        phi_0

Reconstructing point fields

No point fields

No lagrangian fields

No FA fields

Time = 394

Reconstructing FV fields

    Reconstructing volScalarFields

        k
        k_0
        nut
        p
        yPlus

    Reconstructing volVectorFields

        U
        U_0

    Reconstructing surfaceScalarFields

        phi
        phi_0

Reconstructing point fields

No point fields

No lagrangian fields

No FA fields

Time = 396

Reconstructing FV fields

    Reconstructing volScalarFields

        k
        k_0
        nut
        p
        yPlus

    Reconstructing volVectorFields

        U
        U_0

    Reconstructing surfaceScalarFields

        phi
        phi_0

Reconstructing point fields

No point fields

No lagrangian fields

No FA fields

Time = 398

Reconstructing FV fields

    Reconstructing volScalarFields

        k
        k_0
        nut
        p
        yPlus

    Reconstructing volVectorFields

        U
        U_0

    Reconstructing surfaceScalarFields

        phi
        phi_0

Reconstructing point fields

No point fields

No lagrangian fields

No FA fields

Time = 400

Reconstructing FV fields

    Reconstructing volScalarFields

        k
        k_0
        nut
        p
        yPlus

    Reconstructing volVectorFields

        U
        U_0

    Reconstructing surfaceScalarFields

        phi
        phi_0

Reconstructing point fields

No point fields

No lagrangian fields

No FA fields

Time = 402

Reconstructing FV fields

    Reconstructing volScalarFields

        k
        k_0
        nut
        p
        yPlus

    Reconstructing volVectorFields

        U
        U_0

    Reconstructing surfaceScalarFields

        phi
        phi_0

Reconstructing point fields

No point fields

No lagrangian fields

No FA fields

Time = 404

Reconstructing FV fields

    Reconstructing volScalarFields

        k
        k_0
        nut
        p
        yPlus

    Reconstructing volVectorFields

        U
        U_0

    Reconstructing surfaceScalarFields

        phi
        phi_0

Reconstructing point fields

No point fields

No lagrangian fields

No FA fields

Time = 406

Reconstructing FV fields

    Reconstructing volScalarFields

        k
        k_0
        nut
        p
        yPlus

    Reconstructing volVectorFields

        U
        U_0

    Reconstructing surfaceScalarFields

        phi
        phi_0

Reconstructing point fields

No point fields

No lagrangian fields

No FA fields

Time = 408

Reconstructing FV fields

    Reconstructing volScalarFields

        k
        k_0
        nut
        p
        yPlus

    Reconstructing volVectorFields

        U
        U_0

    Reconstructing surfaceScalarFields

        phi
        phi_0

Reconstructing point fields

No point fields

No lagrangian fields

No FA fields

Time = 410

Reconstructing FV fields

    Reconstructing volScalarFields

        k
        k_0
        nut
        p
        yPlus

    Reconstructing volVectorFields

        U
        U_0

    Reconstructing surfaceScalarFields

        phi
        phi_0

Reconstructing point fields

No point fields

No lagrangian fields

No FA fields

Time = 412

Reconstructing FV fields

    Reconstructing volScalarFields

        k
        k_0
        nut
        p
        yPlus

    Reconstructing volVectorFields

        U
        U_0

    Reconstructing surfaceScalarFields

        phi
        phi_0

Reconstructing point fields

No point fields

No lagrangian fields

No FA fields

Time = 414

Reconstructing FV fields

    Reconstructing volScalarFields

        k
        k_0
        nut
        p
        yPlus

    Reconstructing volVectorFields

        U
        U_0

    Reconstructing surfaceScalarFields

        phi
        phi_0

Reconstructing point fields

No point fields

No lagrangian fields

No FA fields

Time = 416

Reconstructing FV fields

    Reconstructing volScalarFields

        k
        k_0
        nut
        p
        yPlus

    Reconstructing volVectorFields

        U
        U_0

    Reconstructing surfaceScalarFields

        phi
        phi_0

Reconstructing point fields

No point fields

No lagrangian fields

No FA fields

Time = 418

Reconstructing FV fields

    Reconstructing volScalarFields

        k
        k_0
        nut
        p
        yPlus

    Reconstructing volVectorFields

        U
        U_0

    Reconstructing surfaceScalarFields

        phi
        phi_0

Reconstructing point fields

No point fields

No lagrangian fields

No FA fields

Time = 420

Reconstructing FV fields

    Reconstructing volScalarFields

        k
        k_0
        nut
        p
        yPlus

    Reconstructing volVectorFields

        U
        U_0

    Reconstructing surfaceScalarFields

        phi
        phi_0

Reconstructing point fields

No point fields

No lagrangian fields

No FA fields

Time = 422

Reconstructing FV fields

    Reconstructing volScalarFields

        k
        k_0
        nut
        p
        yPlus

    Reconstructing volVectorFields

        U
        U_0

    Reconstructing surfaceScalarFields

        phi
        phi_0

Reconstructing point fields

No point fields

No lagrangian fields

No FA fields

Time = 424

Reconstructing FV fields

    Reconstructing volScalarFields

        k
        k_0
        nut
        p
        yPlus

    Reconstructing volVectorFields

        U
        U_0

    Reconstructing surfaceScalarFields

        phi
        phi_0

Reconstructing point fields

No point fields

No lagrangian fields

No FA fields

Time = 426

Reconstructing FV fields

    Reconstructing volScalarFields

        k
        k_0
        nut
        p
        yPlus

    Reconstructing volVectorFields

        U
        U_0

    Reconstructing surfaceScalarFields

        phi
        phi_0

Reconstructing point fields

No point fields

No lagrangian fields

No FA fields

Time = 428

Reconstructing FV fields

    Reconstructing volScalarFields

        k
        k_0
        nut
        p
        yPlus

    Reconstructing volVectorFields

        U
        U_0

    Reconstructing surfaceScalarFields

        phi
        phi_0

Reconstructing point fields

No point fields

No lagrangian fields

No FA fields

Time = 430

Reconstructing FV fields

    Reconstructing volScalarFields

        k
        k_0
        nut
        p
        yPlus

    Reconstructing volVectorFields

        U
        U_0

    Reconstructing surfaceScalarFields

        phi
        phi_0

Reconstructing point fields

No point fields

No lagrangian fields

No FA fields

Time = 432

Reconstructing FV fields

    Reconstructing volScalarFields

        k
        k_0
        nut
        p
        yPlus

    Reconstructing volVectorFields

        U
        U_0

    Reconstructing surfaceScalarFields

        phi
        phi_0

Reconstructing point fields

No point fields

No lagrangian fields

No FA fields

Time = 434

Reconstructing FV fields

    Reconstructing volScalarFields

        k
        k_0
        nut
        p
        yPlus

    Reconstructing volVectorFields

        U
        U_0

    Reconstructing surfaceScalarFields

        phi
        phi_0

Reconstructing point fields

No point fields

No lagrangian fields

No FA fields

Time = 436

Reconstructing FV fields

    Reconstructing volScalarFields

        k
        k_0
        nut
        p
        yPlus

    Reconstructing volVectorFields

        U
        U_0

    Reconstructing surfaceScalarFields

        phi
        phi_0

Reconstructing point fields

No point fields

No lagrangian fields

No FA fields

Time = 438

Reconstructing FV fields

    Reconstructing volScalarFields

        k
        k_0
        nut
        p
        yPlus

    Reconstructing volVectorFields

        U
        U_0

    Reconstructing surfaceScalarFields

        phi
        phi_0

Reconstructing point fields

No point fields

No lagrangian fields

No FA fields

Time = 440

Reconstructing FV fields

    Reconstructing volScalarFields

        k
        k_0
        nut
        p
        yPlus

    Reconstructing volVectorFields

        U
        U_0

    Reconstructing surfaceScalarFields

        phi
        phi_0

Reconstructing point fields

No point fields

No lagrangian fields

No FA fields

Time = 442

Reconstructing FV fields

    Reconstructing volScalarFields

        k
        k_0
        nut
        p
        yPlus

    Reconstructing volVectorFields

        U
        U_0

    Reconstructing surfaceScalarFields

        phi
        phi_0

Reconstructing point fields

No point fields

No lagrangian fields

No FA fields

Time = 444

Reconstructing FV fields

    Reconstructing volScalarFields

        k
        k_0
        nut
        p
        yPlus

    Reconstructing volVectorFields

        U
        U_0

    Reconstructing surfaceScalarFields

        phi
        phi_0

Reconstructing point fields

No point fields

No lagrangian fields

No FA fields

Time = 446

Reconstructing FV fields

    Reconstructing volScalarFields

        k
        k_0
        nut
        p
        yPlus

    Reconstructing volVectorFields

        U
        U_0

    Reconstructing surfaceScalarFields

        phi
        phi_0

Reconstructing point fields

No point fields

No lagrangian fields

No FA fields

Time = 448

Reconstructing FV fields

    Reconstructing volScalarFields

        k
        k_0
        nut
        p
        yPlus

    Reconstructing volVectorFields

        U
        U_0

    Reconstructing surfaceScalarFields

        phi
        phi_0

Reconstructing point fields

No point fields

No lagrangian fields

No FA fields

Time = 450

Reconstructing FV fields

    Reconstructing volScalarFields

        k
        k_0
        nut
        p
        yPlus

    Reconstructing volVectorFields

        U
        U_0

    Reconstructing surfaceScalarFields

        phi
        phi_0

Reconstructing point fields

No point fields

No lagrangian fields

No FA fields

Time = 452

Reconstructing FV fields

    Reconstructing volScalarFields

        k
        k_0
        nut
        p
        yPlus

    Reconstructing volVectorFields

        U
        U_0

    Reconstructing surfaceScalarFields

        phi
        phi_0

Reconstructing point fields

No point fields

No lagrangian fields

No FA fields

Time = 454

Reconstructing FV fields

    Reconstructing volScalarFields

        k
        k_0
        nut
        p
        yPlus

    Reconstructing volVectorFields

        U
        U_0

    Reconstructing surfaceScalarFields

        phi
        phi_0

Reconstructing point fields

No point fields

No lagrangian fields

No FA fields

Time = 456

Reconstructing FV fields

    Reconstructing volScalarFields

        k
        k_0
        nut
        p
        yPlus

    Reconstructing volVectorFields

        U
        U_0

    Reconstructing surfaceScalarFields

        phi
        phi_0

Reconstructing point fields

No point fields

No lagrangian fields

No FA fields

Time = 458

Reconstructing FV fields

    Reconstructing volScalarFields

        k
        k_0
        nut
        p
        yPlus

    Reconstructing volVectorFields

        U
        U_0

    Reconstructing surfaceScalarFields

        phi
        phi_0

Reconstructing point fields

No point fields

No lagrangian fields

No FA fields

Time = 460

Reconstructing FV fields

    Reconstructing volScalarFields

        k
        k_0
        nut
        p
        yPlus

    Reconstructing volVectorFields

        U
        U_0

    Reconstructing surfaceScalarFields

        phi
        phi_0

Reconstructing point fields

No point fields

No lagrangian fields

No FA fields

Time = 462

Reconstructing FV fields

    Reconstructing volScalarFields

        k
        k_0
        nut
        p
        yPlus

    Reconstructing volVectorFields

        U
        U_0

    Reconstructing surfaceScalarFields

        phi
        phi_0

Reconstructing point fields

No point fields

No lagrangian fields

No FA fields

Time = 464

Reconstructing FV fields

    Reconstructing volScalarFields

        k
        k_0
        nut
        p
        yPlus

    Reconstructing volVectorFields

        U
        U_0

    Reconstructing surfaceScalarFields

        phi
        phi_0

Reconstructing point fields

No point fields

No lagrangian fields

No FA fields

Time = 466

Reconstructing FV fields

    Reconstructing volScalarFields

        k
        k_0
        nut
        p
        yPlus

    Reconstructing volVectorFields

        U
        U_0

    Reconstructing surfaceScalarFields

        phi
        phi_0

Reconstructing point fields

No point fields

No lagrangian fields

No FA fields

Time = 468

Reconstructing FV fields

    Reconstructing volScalarFields

        k
        k_0
        nut
        p
        yPlus

    Reconstructing volVectorFields

        U
        U_0

    Reconstructing surfaceScalarFields

        phi
        phi_0

Reconstructing point fields

No point fields

No lagrangian fields

No FA fields

Time = 470

Reconstructing FV fields

    Reconstructing volScalarFields

        k
        k_0
        nut
        p
        yPlus

    Reconstructing volVectorFields

        U
        U_0

    Reconstructing surfaceScalarFields

        phi
        phi_0

Reconstructing point fields

No point fields

No lagrangian fields

No FA fields

Time = 472

Reconstructing FV fields

    Reconstructing volScalarFields

        k
        k_0
        nut
        p
        yPlus

    Reconstructing volVectorFields

        U
        U_0

    Reconstructing surfaceScalarFields

        phi
        phi_0

Reconstructing point fields

No point fields

No lagrangian fields

No FA fields

Time = 474

Reconstructing FV fields

    Reconstructing volScalarFields

        k
        k_0
        nut
        p
        yPlus

    Reconstructing volVectorFields

        U
        U_0

    Reconstructing surfaceScalarFields

        phi
        phi_0

Reconstructing point fields

No point fields

No lagrangian fields

No FA fields

Time = 476

Reconstructing FV fields

    Reconstructing volScalarFields

        k
        k_0
        nut
        p
        yPlus

    Reconstructing volVectorFields

        U
        U_0

    Reconstructing surfaceScalarFields

        phi
        phi_0

Reconstructing point fields

No point fields

No lagrangian fields

No FA fields

Time = 478

Reconstructing FV fields

    Reconstructing volScalarFields

        k
        k_0
        nut
        p
        yPlus

    Reconstructing volVectorFields

        U
        U_0

    Reconstructing surfaceScalarFields

        phi
        phi_0

Reconstructing point fields

No point fields

No lagrangian fields

No FA fields

Time = 480

Reconstructing FV fields

    Reconstructing volScalarFields

        k
        k_0
        nut
        p
        yPlus

    Reconstructing volVectorFields

        U
        U_0

    Reconstructing surfaceScalarFields

        phi
        phi_0

Reconstructing point fields

No point fields

No lagrangian fields

No FA fields

Time = 482

Reconstructing FV fields

    Reconstructing volScalarFields

        k
        k_0
        nut
        p
        yPlus

    Reconstructing volVectorFields

        U
        U_0

    Reconstructing surfaceScalarFields

        phi
        phi_0

Reconstructing point fields

No point fields

No lagrangian fields

No FA fields

Time = 484

Reconstructing FV fields

    Reconstructing volScalarFields

        k
        k_0
        nut
        p
        yPlus

    Reconstructing volVectorFields

        U
        U_0

    Reconstructing surfaceScalarFields

        phi
        phi_0

Reconstructing point fields

No point fields

No lagrangian fields

No FA fields

Time = 486

Reconstructing FV fields

    Reconstructing volScalarFields

        k
        k_0
        nut
        p
        yPlus

    Reconstructing volVectorFields

        U
        U_0

    Reconstructing surfaceScalarFields

        phi
        phi_0

Reconstructing point fields

No point fields

No lagrangian fields

No FA fields

Time = 488

Reconstructing FV fields

    Reconstructing volScalarFields

        k
        k_0
        nut
        p
        yPlus

    Reconstructing volVectorFields

        U
        U_0

    Reconstructing surfaceScalarFields

        phi
        phi_0

Reconstructing point fields

No point fields

No lagrangian fields

No FA fields

Time = 490

Reconstructing FV fields

    Reconstructing volScalarFields

        k
        k_0
        nut
        p
        yPlus

    Reconstructing volVectorFields

        U
        U_0

    Reconstructing surfaceScalarFields

        phi
        phi_0

Reconstructing point fields

No point fields

No lagrangian fields

No FA fields

Time = 492

Reconstructing FV fields

    Reconstructing volScalarFields

        k
        k_0
        nut
        p
        yPlus

    Reconstructing volVectorFields

        U
        U_0

    Reconstructing surfaceScalarFields

        phi
        phi_0

Reconstructing point fields

No point fields

No lagrangian fields

No FA fields

Time = 494

Reconstructing FV fields

    Reconstructing volScalarFields

        k
        k_0
        nut
        p
        yPlus

    Reconstructing volVectorFields

        U
        U_0

    Reconstructing surfaceScalarFields

        phi
        phi_0

Reconstructing point fields

No point fields

No lagrangian fields

No FA fields

Time = 496

Reconstructing FV fields

    Reconstructing volScalarFields

        k
        k_0
        nut
        p
        yPlus

    Reconstructing volVectorFields

        U
        U_0

    Reconstructing surfaceScalarFields

        phi
        phi_0

Reconstructing point fields

No point fields

No lagrangian fields

No FA fields

Time = 498

Reconstructing FV fields

    Reconstructing volScalarFields

        k
        k_0
        nut
        p
        yPlus

    Reconstructing volVectorFields

        U
        U_0

    Reconstructing surfaceScalarFields

        phi
        phi_0

Reconstructing point fields

No point fields

No lagrangian fields

No FA fields

Time = 500

Reconstructing FV fields

    Reconstructing volScalarFields

        k
        k_0
        nut
        p
        yPlus

    Reconstructing volVectorFields

        U
        U_0

    Reconstructing surfaceScalarFields

        phi
        phi_0

Reconstructing point fields

No point fields

No lagrangian fields

No FA fields


End

