/*---------------------------------------------------------------------------*\
| =========                 |                                                 |
| \\      /  F ield         | OpenFOAM: The Open Source CFD Toolbox           |
|  \\    /   O peration     | Version:  2112                                  |
|   \\  /    A nd           | Website:  www.openfoam.com                      |
|    \\/     M anipulation  |                                                 |
\*---------------------------------------------------------------------------*/
Build  : _14aeaf8dab-20211220 OPENFOAM=2112 version=v2112
Arch   : "LSB;label=32;scalar=64"
Exec   : DPMFoam -parallel
Date   : May 23 2022
Time   : 17:56:42
Host   : noreff
PID    : 39204
I/O    : uncollated
Case   : /home/noreff/OpenFOAM/noreff-v2112/run/DPMFoam
nProcs : 4
Hosts  :
(
    (noreff 4)
)
Pstream initialized with:
    floatTransfer      : 0
    nProcsSimpleSum    : 0
    commsType          : nonBlocking
    polling iterations : 0
trapFpe: Floating point exception trapping enabled (FOAM_SIGFPE).
fileModificationChecking : Monitoring run-time modified files using timeStampMaster (fileModificationSkew 5, maxFileModificationPolls 20)
allowSystemOperations : Allowing user-supplied system call operations

// * * * * * * * * * * * * * * * * * * * * * * * * * * * * * * * * * * * * * //
Create time

Create mesh for time = 0


PIMPLE: no residual control data found. Calculations will employ 2 corrector loops


Reading g
Reading field U

Reading field p

Reading/calculating continuous-phase face flux field phic

Creating turbulence model

Selecting incompressible transport model Newtonian
Creating field alphac

Constructing kinematicCloud kinematicCloud
Constructing particle forces
    Selecting particle force ErgunWenYuDrag
Constructing cloud functions
    none
Constructing particle injection models
Creating injector: model1
Selecting injection model patchFlowRateInjection
    Constructing 3-D injection
    Choosing nParticle to be a fixed value, massTotal variable now does not determine anything.
Selecting distribution model fixedValue
Selecting dispersion model none
Selecting patch interaction model localInteraction
    Interaction fields will not be written
Selecting stochastic collision model none
Selecting surface film model none
Selecting packing model none
Selecting damping model none
Selecting isotropy model none
Selecting U integration scheme Euler
Selecting collision model none
Selecting turbulence model type LES
Selecting LES turbulence model kEqn
Selecting LES delta type vanDriest
Selecting LES delta type cubeRootVol
bounding k.air, min: 0 max: 1e-05 average: 1e-05
kEqnCoeffs
{
    Ce              1.048;
    Ck              0.02654;
}


Starting time loop

Courant Number mean: 0.00879848 max: 0.00893814
deltaT = 0.00012
Time = 0.00012

Evolving kinematicCloud

Solving3-D cloud kinematicCloud

Cloud: kinematicCloud injector: model1
    Added 6 new parcels

Cloud: kinematicCloud
    Current number of parcels       = 6
    Current mass in system          = 6.78584e-05
    Linear momentum                 = (0.00119091 0 0)
   |Linear momentum|                = 0.00119091
    Linear kinetic energy           = 0.0104503
    Average particle per parcel     = 1
    Injector model1:
      - parcels added               = 6
      - mass introduced             = 6.78584e-05
    Parcel fate: system (number, mass)
      - escape                      = 0, 0
    Parcel fate: patch inlet (number, mass)
      - escape                      = 0, 0
      - stick                       = 0, 0
    Parcel fate: patch outlet (number, mass)
      - escape                      = 0, 0
      - stick                       = 0, 0
    Parcel fate: patch upperAtm (number, mass)
      - escape                      = 0, 0
      - stick                       = 0, 0
    Parcel fate: patch ground (number, mass)
      - escape                      = 0, 0
      - stick                       = 0, 0
    Parcel fate: patch frontAtm (number, mass)
      - escape                      = 0, 0
      - stick                       = 0, 0
    Parcel fate: patch backAtm (number, mass)
      - escape                      = 0, 0
      - stick                       = 0, 0
    Rotational kinetic energy       = 0

Turbulent DFSEM patch: inlet seeded 123 eddies with total volume 1.24064
PIMPLE: iteration 1
smoothSolver:  Solving for U.airx, Initial residual = 1, Final residual = 6.52871e-08, No Iterations 3
smoothSolver:  Solving for U.airy, Initial residual = 1, Final residual = 3.73844e-07, No Iterations 2
smoothSolver:  Solving for U.airz, Initial residual = 1, Final residual = 7.0494e-07, No Iterations 2
GAMG:  Solving for p, Initial residual = 1, Final residual = 0.00916677, No Iterations 5
GAMG:  Solving for p, Initial residual = 0.000700843, Final residual = 6.60768e-06, No Iterations 6
GAMG:  Solving for p, Initial residual = 6.47575e-06, Final residual = 6.81209e-07, No Iterations 3
time step continuity errors : sum local = 3.88225e-10, global = 3.81535e-10, cumulative = 3.81535e-10
PIMPLE: iteration 2
smoothSolver:  Solving for U.airx, Initial residual = 0.00161325, Final residual = 2.12458e-08, No Iterations 2
smoothSolver:  Solving for U.airy, Initial residual = 0.00165083, Final residual = 1.70594e-08, No Iterations 2
smoothSolver:  Solving for U.airz, Initial residual = 0.00312783, Final residual = 1.87211e-08, No Iterations 2
GAMG:  Solving for p, Initial residual = 0.000568244, Final residual = 5.15361e-06, No Iterations 4
GAMG:  Solving for p, Initial residual = 5.16295e-06, Final residual = 9.12925e-07, No Iterations 2
GAMG:  Solving for p, Initial residual = 9.13017e-07, Final residual = 9.13017e-07, No Iterations 0
time step continuity errors : sum local = 5.1933e-10, global = -4.12644e-10, cumulative = -3.11087e-11
smoothSolver:  Solving for k.air, Initial residual = 1, Final residual = 1.67814e-07, No Iterations 3
bounding k.air, min: 0 max: 1.01078e-05 average: 1.0001e-05
ExecutionTime = 0.22 s  ClockTime = 0 s

Courant Number mean: 0.0111578 max: 0.0330565
deltaT = 0.000144
Time = 0.000264

Evolving kinematicCloud

Solving3-D cloud kinematicCloud

Cloud: kinematicCloud injector: model1
    Added 8 new parcels

Cloud: kinematicCloud
    Current number of parcels       = 14
    Current mass in system          = 0.000158336
    Linear momentum                 = (0.00278853 -5.79241e-05 2.14316e-06)
   |Linear momentum|                = 0.00278913
    Linear kinetic energy           = 0.0246443
    Average particle per parcel     = 1
    Injector model1:
      - parcels added               = 14
      - mass introduced             = 0.000158336
    Parcel fate: system (number, mass)
      - escape                      = 0, 0
    Parcel fate: patch inlet (number, mass)
      - escape                      = 0, 0
      - stick                       = 0, 0
    Parcel fate: patch outlet (number, mass)
      - escape                      = 0, 0
      - stick                       = 0, 0
    Parcel fate: patch upperAtm (number, mass)
      - escape                      = 0, 0
      - stick                       = 0, 0
    Parcel fate: patch ground (number, mass)
      - escape                      = 0, 0
      - stick                       = 0, 0
    Parcel fate: patch frontAtm (number, mass)
      - escape                      = 0, 0
      - stick                       = 0, 0
    Parcel fate: patch backAtm (number, mass)
      - escape                      = 0, 0
      - stick                       = 0, 0
    Rotational kinetic energy       = 0

PIMPLE: iteration 1
smoothSolver:  Solving for U.airx, Initial residual = 0.273431, Final residual = 5.92263e-09, No Iterations 3
smoothSolver:  Solving for U.airy, Initial residual = 0.3104, Final residual = 1.50583e-08, No Iterations 3
smoothSolver:  Solving for U.airz, Initial residual = 0.373654, Final residual = 2.90297e-08, No Iterations 3
GAMG:  Solving for p, Initial residual = 0.115419, Final residual = 0.001084, No Iterations 5
GAMG:  Solving for p, Initial residual = 0.00201238, Final residual = 1.89069e-05, No Iterations 6
GAMG:  Solving for p, Initial residual = 1.78584e-05, Final residual = 8.90186e-07, No Iterations 4
time step continuity errors : sum local = 2.59964e-10, global = -2.55987e-10, cumulative = -2.87096e-10
PIMPLE: iteration 2
smoothSolver:  Solving for U.airx, Initial residual = 0.00136555, Final residual = 1.42448e-08, No Iterations 2
smoothSolver:  Solving for U.airy, Initial residual = 0.00159904, Final residual = 1.68313e-08, No Iterations 2
smoothSolver:  Solving for U.airz, Initial residual = 0.00311646, Final residual = 3.75393e-08, No Iterations 2
GAMG:  Solving for p, Initial residual = 0.00146882, Final residual = 1.03526e-05, No Iterations 4
GAMG:  Solving for p, Initial residual = 1.03885e-05, Final residual = 8.05876e-07, No Iterations 3
GAMG:  Solving for p, Initial residual = 8.06061e-07, Final residual = 8.06061e-07, No Iterations 0
time step continuity errors : sum local = 2.34566e-10, global = 1.97675e-10, cumulative = -8.9421e-11
smoothSolver:  Solving for k.air, Initial residual = 0.993013, Final residual = 3.38624e-08, No Iterations 3
bounding k.air, min: 0 max: 0.000127583 average: 1.3591e-05
ExecutionTime = 0.3 s  ClockTime = 0 s

Courant Number mean: 0.0133876 max: 0.0401209
deltaT = 0.0001728
Time = 0.0004368

Evolving kinematicCloud

Solving3-D cloud kinematicCloud

Cloud: kinematicCloud injector: model1
    Added 10 new parcels

Cloud: kinematicCloud
    Current number of parcels       = 24
    Current mass in system          = 0.000271434
    Linear momentum                 = (0.00478654 -0.00018901 6.46107e-07)
   |Linear momentum|                = 0.00479027
    Linear kinetic energy           = 0.0424635
    Average particle per parcel     = 1
    Injector model1:
      - parcels added               = 24
      - mass introduced             = 0.000271434
    Parcel fate: system (number, mass)
      - escape                      = 0, 0
    Parcel fate: patch inlet (number, mass)
      - escape                      = 0, 0
      - stick                       = 0, 0
    Parcel fate: patch outlet (number, mass)
      - escape                      = 0, 0
      - stick                       = 0, 0
    Parcel fate: patch upperAtm (number, mass)
      - escape                      = 0, 0
      - stick                       = 0, 0
    Parcel fate: patch ground (number, mass)
      - escape                      = 0, 0
      - stick                       = 0, 0
    Parcel fate: patch frontAtm (number, mass)
      - escape                      = 0, 0
      - stick                       = 0, 0
    Parcel fate: patch backAtm (number, mass)
      - escape                      = 0, 0
      - stick                       = 0, 0
    Rotational kinetic energy       = 0

PIMPLE: iteration 1
smoothSolver:  Solving for U.airx, Initial residual = 0.148496, Final residual = 5.76814e-09, No Iterations 3
smoothSolver:  Solving for U.airy, Initial residual = 0.209222, Final residual = 1.74497e-08, No Iterations 3
smoothSolver:  Solving for U.airz, Initial residual = 0.349344, Final residual = 3.5697e-08, No Iterations 3
GAMG:  Solving for p, Initial residual = 0.0789563, Final residual = 0.000693075, No Iterations 5
GAMG:  Solving for p, Initial residual = 0.0165784, Final residual = 0.000155104, No Iterations 6
GAMG:  Solving for p, Initial residual = 0.000282158, Final residual = 7.18279e-07, No Iterations 8
time step continuity errors : sum local = 6.50719e-12, global = 6.43666e-12, cumulative = -8.29843e-11
PIMPLE: iteration 2
smoothSolver:  Solving for U.airx, Initial residual = 0.000650478, Final residual = 9.78098e-09, No Iterations 2
smoothSolver:  Solving for U.airy, Initial residual = 0.000804238, Final residual = 1.21231e-08, No Iterations 2
smoothSolver:  Solving for U.airz, Initial residual = 0.00191485, Final residual = 2.95369e-08, No Iterations 2
GAMG:  Solving for p, Initial residual = 0.0279542, Final residual = 0.000199076, No Iterations 4
GAMG:  Solving for p, Initial residual = 0.000187043, Final residual = 1.37736e-06, No Iterations 6
GAMG:  Solving for p, Initial residual = 1.37201e-06, Final residual = 6.38635e-07, No Iterations 1
time step continuity errors : sum local = 6.19849e-12, global = -5.89805e-12, cumulative = -8.88823e-11
smoothSolver:  Solving for k.air, Initial residual = 0.366131, Final residual = 2.65052e-08, No Iterations 3
bounding k.air, min: 0 max: 0.000670324 average: 2.97463e-05
ExecutionTime = 0.38 s  ClockTime = 0 s

Courant Number mean: 0.0160595 max: 0.0468178
deltaT = 0.00020736
Time = 0.00064416

Evolving kinematicCloud

Solving3-D cloud kinematicCloud

Cloud: kinematicCloud injector: model1
    Added 12 new parcels

Cloud: kinematicCloud
    Current number of parcels       = 36
    Current mass in system          = 0.00040715
    Linear momentum                 = (0.00718374 -0.00038354 7.01983e-06)
   |Linear momentum|                = 0.00719398
    Linear kinetic energy           = 0.0638392
    Average particle per parcel     = 1
    Injector model1:
      - parcels added               = 36
      - mass introduced             = 0.00040715
    Parcel fate: system (number, mass)
      - escape                      = 0, 0
    Parcel fate: patch inlet (number, mass)
      - escape                      = 0, 0
      - stick                       = 0, 0
    Parcel fate: patch outlet (number, mass)
      - escape                      = 0, 0
      - stick                       = 0, 0
    Parcel fate: patch upperAtm (number, mass)
      - escape                      = 0, 0
      - stick                       = 0, 0
    Parcel fate: patch ground (number, mass)
      - escape                      = 0, 0
      - stick                       = 0, 0
    Parcel fate: patch frontAtm (number, mass)
      - escape                      = 0, 0
      - stick                       = 0, 0
    Parcel fate: patch backAtm (number, mass)
      - escape                      = 0, 0
      - stick                       = 0, 0
    Rotational kinetic energy       = 0

PIMPLE: iteration 1
smoothSolver:  Solving for U.airx, Initial residual = 0.0123596, Final residual = 2.67211e-07, No Iterations 2
smoothSolver:  Solving for U.airy, Initial residual = 0.00505831, Final residual = 1.19144e-07, No Iterations 2
smoothSolver:  Solving for U.airz, Initial residual = 0.142015, Final residual = 2.67542e-08, No Iterations 3
GAMG:  Solving for p, Initial residual = 0.386048, Final residual = 0.00228178, No Iterations 3
GAMG:  Solving for p, Initial residual = 0.00338676, Final residual = 1.90282e-05, No Iterations 5
GAMG:  Solving for p, Initial residual = 1.98677e-05, Final residual = 7.79278e-07, No Iterations 4
time step continuity errors : sum local = 6.42475e-12, global = 6.23723e-12, cumulative = -8.26451e-11
PIMPLE: iteration 2
smoothSolver:  Solving for U.airx, Initial residual = 2.97864e-05, Final residual = 1.2838e-07, No Iterations 1
smoothSolver:  Solving for U.airy, Initial residual = 3.83626e-05, Final residual = 2.08001e-07, No Iterations 1
smoothSolver:  Solving for U.airz, Initial residual = 0.00111187, Final residual = 2.35906e-08, No Iterations 2
GAMG:  Solving for p, Initial residual = 0.00549569, Final residual = 5.07805e-05, No Iterations 2
GAMG:  Solving for p, Initial residual = 5.07524e-05, Final residual = 4.27391e-07, No Iterations 4
GAMG:  Solving for p, Initial residual = 4.27306e-07, Final residual = 4.27306e-07, No Iterations 0
time step continuity errors : sum local = 3.52492e-12, global = -1.22571e-12, cumulative = -8.38708e-11
smoothSolver:  Solving for k.air, Initial residual = 0.218433, Final residual = 2.62233e-08, No Iterations 3
bounding k.air, min: 0 max: 0.00222187 average: 7.52759e-05
ExecutionTime = 0.45 s  ClockTime = 0 s

Courant Number mean: 0.0192668 max: 0.056531
deltaT = 0.000248832
Time = 0.000892992

Evolving kinematicCloud

Solving3-D cloud kinematicCloud

Cloud: kinematicCloud injector: model1
    Added 13 new parcels

Cloud: kinematicCloud
    Current number of parcels       = 49
    Current mass in system          = 0.000554177
    Linear momentum                 = (0.00974021 -0.000565123 7.03523e-07)
   |Linear momentum|                = 0.00975659
    Linear kinetic energy           = 0.0863314
    Average particle per parcel     = 1
    Injector model1:
      - parcels added               = 49
      - mass introduced             = 0.000554177
    Parcel fate: system (number, mass)
      - escape                      = 0, 0
    Parcel fate: patch inlet (number, mass)
      - escape                      = 0, 0
      - stick                       = 0, 0
    Parcel fate: patch outlet (number, mass)
      - escape                      = 0, 0
      - stick                       = 0, 0
    Parcel fate: patch upperAtm (number, mass)
      - escape                      = 0, 0
      - stick                       = 0, 0
    Parcel fate: patch ground (number, mass)
      - escape                      = 0, 0
      - stick                       = 0, 0
    Parcel fate: patch frontAtm (number, mass)
      - escape                      = 0, 0
      - stick                       = 0, 0
    Parcel fate: patch backAtm (number, mass)
      - escape                      = 0, 0
      - stick                       = 0, 0
    Rotational kinetic energy       = 0

PIMPLE: iteration 1
smoothSolver:  Solving for U.airx, Initial residual = 0.0146607, Final residual = 4.24429e-07, No Iterations 2
smoothSolver:  Solving for U.airy, Initial residual = 0.00573942, Final residual = 1.68911e-07, No Iterations 2
smoothSolver:  Solving for U.airz, Initial residual = 0.159319, Final residual = 4.03908e-08, No Iterations 3
GAMG:  Solving for p, Initial residual = 0.649832, Final residual = 0.00373679, No Iterations 3
GAMG:  Solving for p, Initial residual = 0.00217577, Final residual = 1.01616e-05, No Iterations 6
GAMG:  Solving for p, Initial residual = 9.77055e-06, Final residual = 9.87884e-07, No Iterations 3
time step continuity errors : sum local = 2.49314e-11, global = -2.45663e-11, cumulative = -1.08437e-10
PIMPLE: iteration 2
smoothSolver:  Solving for U.airx, Initial residual = 5.62659e-05, Final residual = 2.93824e-07, No Iterations 1
smoothSolver:  Solving for U.airy, Initial residual = 6.98498e-05, Final residual = 4.58128e-07, No Iterations 1
smoothSolver:  Solving for U.airz, Initial residual = 0.00209147, Final residual = 6.71057e-08, No Iterations 2
GAMG:  Solving for p, Initial residual = 0.00408041, Final residual = 3.38939e-05, No Iterations 2
GAMG:  Solving for p, Initial residual = 3.39289e-05, Final residual = 8.79076e-07, No Iterations 3
GAMG:  Solving for p, Initial residual = 8.79302e-07, Final residual = 8.79302e-07, No Iterations 0
time step continuity errors : sum local = 2.21588e-11, global = 1.27547e-11, cumulative = -9.56823e-11
smoothSolver:  Solving for k.air, Initial residual = 0.154687, Final residual = 3.05667e-08, No Iterations 3
bounding k.air, min: 0 max: 0.00567281 average: 0.000175383
ExecutionTime = 0.53 s  ClockTime = 0 s

Courant Number mean: 0.0231122 max: 0.0702875
deltaT = 0.000298598
Time = 0.00119159

Evolving kinematicCloud

Solving3-D cloud kinematicCloud

Cloud: kinematicCloud injector: model1
    Added 17 new parcels

Cloud: kinematicCloud
    Current number of parcels       = 66
    Current mass in system          = 0.000746442
    Linear momentum                 = (0.0131518 -0.00072004 -2.99107e-06)
   |Linear momentum|                = 0.0131715
    Linear kinetic energy           = 0.116834
    Average particle per parcel     = 1
    Injector model1:
      - parcels added               = 66
      - mass introduced             = 0.000746442
    Parcel fate: system (number, mass)
      - escape                      = 0, 0
    Parcel fate: patch inlet (number, mass)
      - escape                      = 0, 0
      - stick                       = 0, 0
    Parcel fate: patch outlet (number, mass)
      - escape                      = 0, 0
      - stick                       = 0, 0
    Parcel fate: patch upperAtm (number, mass)
      - escape                      = 0, 0
      - stick                       = 0, 0
    Parcel fate: patch ground (number, mass)
      - escape                      = 0, 0
      - stick                       = 0, 0
    Parcel fate: patch frontAtm (number, mass)
      - escape                      = 0, 0
      - stick                       = 0, 0
    Parcel fate: patch backAtm (number, mass)
      - escape                      = 0, 0
      - stick                       = 0, 0
    Rotational kinetic energy       = 0

PIMPLE: iteration 1
smoothSolver:  Solving for U.airx, Initial residual = 0.0175067, Final residual = 6.80545e-07, No Iterations 2
smoothSolver:  Solving for U.airy, Initial residual = 0.00988203, Final residual = 4.91858e-07, No Iterations 2
smoothSolver:  Solving for U.airz, Initial residual = 0.246266, Final residual = 1.38807e-07, No Iterations 3
GAMG:  Solving for p, Initial residual = 0.485451, Final residual = 0.00325603, No Iterations 3
GAMG:  Solving for p, Initial residual = 0.00450997, Final residual = 3.23321e-05, No Iterations 5
GAMG:  Solving for p, Initial residual = 3.0075e-05, Final residual = 5.69825e-07, No Iterations 5
time step continuity errors : sum local = 1.58028e-11, global = 1.55011e-11, cumulative = -8.01813e-11
PIMPLE: iteration 2
smoothSolver:  Solving for U.airx, Initial residual = 8.14981e-05, Final residual = 5.18215e-07, No Iterations 1
smoothSolver:  Solving for U.airy, Initial residual = 0.000120916, Final residual = 9.58621e-07, No Iterations 1
smoothSolver:  Solving for U.airz, Initial residual = 0.00265682, Final residual = 1.32826e-07, No Iterations 2
GAMG:  Solving for p, Initial residual = 0.00786395, Final residual = 7.6691e-05, No Iterations 2
GAMG:  Solving for p, Initial residual = 7.68232e-05, Final residual = 7.11797e-07, No Iterations 4
GAMG:  Solving for p, Initial residual = 7.12253e-07, Final residual = 7.12253e-07, No Iterations 0
time step continuity errors : sum local = 1.97177e-11, global = -1.04304e-11, cumulative = -9.06117e-11
smoothSolver:  Solving for k.air, Initial residual = 0.119693, Final residual = 3.84543e-08, No Iterations 3
bounding k.air, min: 0 max: 0.0122635 average: 0.000364415
ExecutionTime = 0.6 s  ClockTime = 0 s

Courant Number mean: 0.0277308 max: 0.0881134
deltaT = 0.000358318
Time = 0.00154991

Evolving kinematicCloud

Solving3-D cloud kinematicCloud

Cloud: kinematicCloud injector: model1
    Added 20 new parcels

Cloud: kinematicCloud
    Current number of parcels       = 86
    Current mass in system          = 0.000972637
    Linear momentum                 = (0.0170937 -0.00103076 8.09999e-07)
   |Linear momentum|                = 0.0171248
    Linear kinetic energy           = 0.151609
    Average particle per parcel     = 1
    Injector model1:
      - parcels added               = 86
      - mass introduced             = 0.000972637
    Parcel fate: system (number, mass)
      - escape                      = 0, 0
    Parcel fate: patch inlet (number, mass)
      - escape                      = 0, 0
      - stick                       = 0, 0
    Parcel fate: patch outlet (number, mass)
      - escape                      = 0, 0
      - stick                       = 0, 0
    Parcel fate: patch upperAtm (number, mass)
      - escape                      = 0, 0
      - stick                       = 0, 0
    Parcel fate: patch ground (number, mass)
      - escape                      = 0, 0
      - stick                       = 0, 0
    Parcel fate: patch frontAtm (number, mass)
      - escape                      = 0, 0
      - stick                       = 0, 0
    Parcel fate: patch backAtm (number, mass)
      - escape                      = 0, 0
      - stick                       = 0, 0
    Rotational kinetic energy       = 0

PIMPLE: iteration 1
smoothSolver:  Solving for U.airx, Initial residual = 0.020089, Final residual = 1.08963e-08, No Iterations 3
smoothSolver:  Solving for U.airy, Initial residual = 0.0122478, Final residual = 9.55072e-07, No Iterations 2
smoothSolver:  Solving for U.airz, Initial residual = 0.209536, Final residual = 2.29385e-07, No Iterations 3
GAMG:  Solving for p, Initial residual = 0.540986, Final residual = 0.00419144, No Iterations 3
GAMG:  Solving for p, Initial residual = 0.00727116, Final residual = 5.09255e-05, No Iterations 4
GAMG:  Solving for p, Initial residual = 4.98983e-05, Final residual = 3.66708e-07, No Iterations 4
time step continuity errors : sum local = 7.26344e-12, global = -1.1132e-12, cumulative = -9.17249e-11
PIMPLE: iteration 2
smoothSolver:  Solving for U.airx, Initial residual = 9.17112e-05, Final residual = 7.0473e-07, No Iterations 1
smoothSolver:  Solving for U.airy, Initial residual = 0.000148436, Final residual = 1.37897e-08, No Iterations 2
smoothSolver:  Solving for U.airz, Initial residual = 0.00290048, Final residual = 2.09213e-07, No Iterations 2
GAMG:  Solving for p, Initial residual = 0.0146407, Final residual = 5.4607e-05, No Iterations 3
GAMG:  Solving for p, Initial residual = 5.47991e-05, Final residual = 3.80868e-07, No Iterations 4
GAMG:  Solving for p, Initial residual = 3.80893e-07, Final residual = 3.80893e-07, No Iterations 0
time step continuity errors : sum local = 7.50159e-12, global = -1.6187e-13, cumulative = -9.18867e-11
smoothSolver:  Solving for k.air, Initial residual = 0.0975316, Final residual = 5.15135e-08, No Iterations 3
bounding k.air, min: 0 max: 0.0235914 average: 0.000685457
ExecutionTime = 0.67 s  ClockTime = 0 s

Courant Number mean: 0.0332722 max: 0.105622
deltaT = 0.000429982
Time = 0.00197989

Evolving kinematicCloud

Solving3-D cloud kinematicCloud

Cloud: kinematicCloud injector: model1
    Added 24 new parcels

Cloud: kinematicCloud
    Current number of parcels       = 110
    Current mass in system          = 0.00124407
    Linear momentum                 = (0.0218734 -0.00140123 1.13946e-05)
   |Linear momentum|                = 0.0219183
    Linear kinetic energy           = 0.194121
    Average particle per parcel     = 1
    Injector model1:
      - parcels added               = 110
      - mass introduced             = 0.00124407
    Parcel fate: system (number, mass)
      - escape                      = 0, 0
    Parcel fate: patch inlet (number, mass)
      - escape                      = 0, 0
      - stick                       = 0, 0
    Parcel fate: patch outlet (number, mass)
      - escape                      = 0, 0
      - stick                       = 0, 0
    Parcel fate: patch upperAtm (number, mass)
      - escape                      = 0, 0
      - stick                       = 0, 0
    Parcel fate: patch ground (number, mass)
      - escape                      = 0, 0
      - stick                       = 0, 0
    Parcel fate: patch frontAtm (number, mass)
      - escape                      = 0, 0
      - stick                       = 0, 0
    Parcel fate: patch backAtm (number, mass)
      - escape                      = 0, 0
      - stick                       = 0, 0
    Rotational kinetic energy       = 0

PIMPLE: iteration 1
smoothSolver:  Solving for U.airx, Initial residual = 0.0181036, Final residual = 1.62639e-08, No Iterations 3
smoothSolver:  Solving for U.airy, Initial residual = 0.00865592, Final residual = 8.14573e-07, No Iterations 2
smoothSolver:  Solving for U.airz, Initial residual = 0.133511, Final residual = 2.00095e-07, No Iterations 3
GAMG:  Solving for p, Initial residual = 0.628689, Final residual = 0.00279024, No Iterations 3
GAMG:  Solving for p, Initial residual = 0.00269528, Final residual = 1.76241e-05, No Iterations 4
GAMG:  Solving for p, Initial residual = 1.75795e-05, Final residual = 4.21583e-07, No Iterations 3
time step continuity errors : sum local = 1.25217e-11, global = 6.09174e-13, cumulative = -9.12775e-11
PIMPLE: iteration 2
smoothSolver:  Solving for U.airx, Initial residual = 6.86116e-05, Final residual = 6.14559e-07, No Iterations 1
smoothSolver:  Solving for U.airy, Initial residual = 0.000121873, Final residual = 1.40807e-08, No Iterations 2
smoothSolver:  Solving for U.airz, Initial residual = 0.00220048, Final residual = 1.88009e-07, No Iterations 2
GAMG:  Solving for p, Initial residual = 0.0103787, Final residual = 9.80449e-05, No Iterations 2
GAMG:  Solving for p, Initial residual = 9.81082e-05, Final residual = 5.71491e-07, No Iterations 4
GAMG:  Solving for p, Initial residual = 5.71542e-07, Final residual = 5.71542e-07, No Iterations 0
time step continuity errors : sum local = 1.69546e-11, global = -3.67769e-13, cumulative = -9.16453e-11
smoothSolver:  Solving for k.air, Initial residual = 0.0819272, Final residual = 6.80825e-08, No Iterations 3
bounding k.air, min: 0 max: 0.0415074 average: 0.00118694
ExecutionTime = 0.73 s  ClockTime = 1 s

Courant Number mean: 0.0399285 max: 0.124546
deltaT = 0.000515978
Time = 0.00249587

Evolving kinematicCloud

Solving3-D cloud kinematicCloud

Cloud: kinematicCloud injector: model1
    Added 28 new parcels

Cloud: kinematicCloud
    Current number of parcels       = 138
    Current mass in system          = 0.00156074
    Linear momentum                 = (0.0273774 -0.00182896 2.19569e-05)
   |Linear momentum|                = 0.0274384
    Linear kinetic energy           = 0.24261
    Average particle per parcel     = 1
    Injector model1:
      - parcels added               = 138
      - mass introduced             = 0.00156074
    Parcel fate: system (number, mass)
      - escape                      = 0, 0
    Parcel fate: patch inlet (number, mass)
      - escape                      = 0, 0
      - stick                       = 0, 0
    Parcel fate: patch outlet (number, mass)
      - escape                      = 0, 0
      - stick                       = 0, 0
    Parcel fate: patch upperAtm (number, mass)
      - escape                      = 0, 0
      - stick                       = 0, 0
    Parcel fate: patch ground (number, mass)
      - escape                      = 0, 0
      - stick                       = 0, 0
    Parcel fate: patch frontAtm (number, mass)
      - escape                      = 0, 0
      - stick                       = 0, 0
    Parcel fate: patch backAtm (number, mass)
      - escape                      = 0, 0
      - stick                       = 0, 0
    Rotational kinetic energy       = 0

PIMPLE: iteration 1
smoothSolver:  Solving for U.airx, Initial residual = 0.0203788, Final residual = 2.90932e-08, No Iterations 3
smoothSolver:  Solving for U.airy, Initial residual = 0.011096, Final residual = 2.37804e-08, No Iterations 3
smoothSolver:  Solving for U.airz, Initial residual = 0.152739, Final residual = 3.0092e-07, No Iterations 3
GAMG:  Solving for p, Initial residual = 0.626233, Final residual = 0.0024429, No Iterations 3
GAMG:  Solving for p, Initial residual = 0.00254512, Final residual = 2.19075e-05, No Iterations 5
GAMG:  Solving for p, Initial residual = 2.11595e-05, Final residual = 9.46347e-07, No Iterations 4
time step continuity errors : sum local = 3.73661e-11, global = -3.62604e-11, cumulative = -1.27906e-10
PIMPLE: iteration 2
smoothSolver:  Solving for U.airx, Initial residual = 7.74664e-05, Final residual = 8.12098e-07, No Iterations 1
smoothSolver:  Solving for U.airy, Initial residual = 0.000167508, Final residual = 2.56504e-08, No Iterations 2
smoothSolver:  Solving for U.airz, Initial residual = 0.00267594, Final residual = 3.06046e-07, No Iterations 2
GAMG:  Solving for p, Initial residual = 0.0130594, Final residual = 0.00011532, No Iterations 2
GAMG:  Solving for p, Initial residual = 0.000115425, Final residual = 1.04962e-06, No Iterations 4
GAMG:  Solving for p, Initial residual = 1.05018e-06, Final residual = 4.42853e-07, No Iterations 1
time step continuity errors : sum local = 1.74584e-11, global = 1.43047e-11, cumulative = -1.13601e-10
smoothSolver:  Solving for k.air, Initial residual = 0.0698747, Final residual = 8.90303e-08, No Iterations 3
bounding k.air, min: 0 max: 0.0677879 average: 0.00191383
ExecutionTime = 0.81 s  ClockTime = 1 s

Courant Number mean: 0.0479039 max: 0.146903
deltaT = 0.000619174
Time = 0.00311504

Evolving kinematicCloud

Solving3-D cloud kinematicCloud

Cloud: kinematicCloud injector: model1
    Added 34 new parcels

Cloud: kinematicCloud
    Current number of parcels       = 171
    Current mass in system          = 0.00193396
    Linear momentum                 = (0.0339358 -0.00213482 2.91593e-05)
   |Linear momentum|                = 0.0340029
    Linear kinetic energy           = 0.300905
    Average particle per parcel     = 1
    Injector model1:
      - parcels added               = 172
      - mass introduced             = 0.00194527
    Parcel fate: system (number, mass)
      - escape                      = 1, 1.13097e-05
    Parcel fate: patch inlet (number, mass)
      - escape                      = 0, 0
      - stick                       = 0, 0
    Parcel fate: patch outlet (number, mass)
      - escape                      = 0, 0
      - stick                       = 0, 0
    Parcel fate: patch upperAtm (number, mass)
      - escape                      = 1, 1.13097e-05
      - stick                       = 0, 0
    Parcel fate: patch ground (number, mass)
      - escape                      = 0, 0
      - stick                       = 0, 0
    Parcel fate: patch frontAtm (number, mass)
      - escape                      = 0, 0
      - stick                       = 0, 0
    Parcel fate: patch backAtm (number, mass)
      - escape                      = 0, 0
      - stick                       = 0, 0
    Rotational kinetic energy       = 0

PIMPLE: iteration 1
smoothSolver:  Solving for U.airx, Initial residual = 0.0194532, Final residual = 4.68714e-08, No Iterations 3
smoothSolver:  Solving for U.airy, Initial residual = 0.0109934, Final residual = 4.3458e-08, No Iterations 3
smoothSolver:  Solving for U.airz, Initial residual = 0.125854, Final residual = 5.43245e-07, No Iterations 3
GAMG:  Solving for p, Initial residual = 0.589683, Final residual = 0.00182054, No Iterations 3
GAMG:  Solving for p, Initial residual = 0.0019789, Final residual = 1.35623e-05, No Iterations 4
GAMG:  Solving for p, Initial residual = 1.36319e-05, Final residual = 3.44147e-07, No Iterations 3
time step continuity errors : sum local = 1.75745e-11, global = 2.92142e-12, cumulative = -1.1068e-10
PIMPLE: iteration 2
smoothSolver:  Solving for U.airx, Initial residual = 6.65622e-05, Final residual = 8.66772e-07, No Iterations 1
smoothSolver:  Solving for U.airy, Initial residual = 0.000176491, Final residual = 4.61511e-08, No Iterations 2
smoothSolver:  Solving for U.airz, Initial residual = 0.00250165, Final residual = 4.61849e-07, No Iterations 2
GAMG:  Solving for p, Initial residual = 0.015155, Final residual = 9.62103e-05, No Iterations 2
GAMG:  Solving for p, Initial residual = 9.63354e-05, Final residual = 6.05479e-07, No Iterations 4
GAMG:  Solving for p, Initial residual = 6.05374e-07, Final residual = 6.05374e-07, No Iterations 0
time step continuity errors : sum local = 3.08326e-11, global = -3.34374e-12, cumulative = -1.14023e-10
smoothSolver:  Solving for k.air, Initial residual = 0.0597048, Final residual = 1.13256e-07, No Iterations 3
bounding k.air, min: 0 max: 0.103452 average: 0.00289104
ExecutionTime = 0.87 s  ClockTime = 1 s

Courant Number mean: 0.0574601 max: 0.170867
deltaT = 0.000743008
Time = 0.00385805

Evolving kinematicCloud

Solving3-D cloud kinematicCloud

Cloud: kinematicCloud injector: model1
    Added 41 new parcels

Cloud: kinematicCloud
    Current number of parcels       = 212
    Current mass in system          = 0.00239766
    Linear momentum                 = (0.0419708 -0.0026622 9.39872e-06)
   |Linear momentum|                = 0.0420551
    Linear kinetic energy           = 0.371489
    Average particle per parcel     = 1
    Injector model1:
      - parcels added               = 213
      - mass introduced             = 0.00240897
    Parcel fate: system (number, mass)
      - escape                      = 1, 1.13097e-05
    Parcel fate: patch inlet (number, mass)
      - escape                      = 0, 0
      - stick                       = 0, 0
    Parcel fate: patch outlet (number, mass)
      - escape                      = 0, 0
      - stick                       = 0, 0
    Parcel fate: patch upperAtm (number, mass)
      - escape                      = 1, 1.13097e-05
      - stick                       = 0, 0
    Parcel fate: patch ground (number, mass)
      - escape                      = 0, 0
      - stick                       = 0, 0
    Parcel fate: patch frontAtm (number, mass)
      - escape                      = 0, 0
      - stick                       = 0, 0
    Parcel fate: patch backAtm (number, mass)
      - escape                      = 0, 0
      - stick                       = 0, 0
    Rotational kinetic energy       = 0

PIMPLE: iteration 1
smoothSolver:  Solving for U.airx, Initial residual = 0.0220602, Final residual = 7.88022e-08, No Iterations 3
smoothSolver:  Solving for U.airy, Initial residual = 0.0146111, Final residual = 1.15367e-07, No Iterations 3
smoothSolver:  Solving for U.airz, Initial residual = 0.166184, Final residual = 3.29403e-08, No Iterations 4
GAMG:  Solving for p, Initial residual = 0.673942, Final residual = 0.0023526, No Iterations 3
GAMG:  Solving for p, Initial residual = 0.00206916, Final residual = 1.28709e-05, No Iterations 4
GAMG:  Solving for p, Initial residual = 1.2892e-05, Final residual = 3.40208e-07, No Iterations 3
time step continuity errors : sum local = 3.13474e-11, global = 7.60356e-12, cumulative = -1.0642e-10
PIMPLE: iteration 2
smoothSolver:  Solving for U.airx, Initial residual = 0.00011525, Final residual = 2.75844e-08, No Iterations 2
smoothSolver:  Solving for U.airy, Initial residual = 0.000319939, Final residual = 1.10745e-07, No Iterations 2
smoothSolver:  Solving for U.airz, Initial residual = 0.00440858, Final residual = 2.47519e-08, No Iterations 3
GAMG:  Solving for p, Initial residual = 0.0164838, Final residual = 0.000126929, No Iterations 2
GAMG:  Solving for p, Initial residual = 0.000127062, Final residual = 6.88235e-07, No Iterations 4
GAMG:  Solving for p, Initial residual = 6.88309e-07, Final residual = 6.88309e-07, No Iterations 0
time step continuity errors : sum local = 6.32857e-11, global = 4.16785e-12, cumulative = -1.02252e-10
smoothSolver:  Solving for k.air, Initial residual = 0.0502987, Final residual = 1.37767e-07, No Iterations 3
bounding k.air, min: 0 max: 0.14768 average: 0.00409951
ExecutionTime = 0.93 s  ClockTime = 1 s

Courant Number mean: 0.0689238 max: 0.192246
deltaT = 0.00089161
Time = 0.00474966

Evolving kinematicCloud

Solving3-D cloud kinematicCloud

Cloud: kinematicCloud injector: model1
    Added 49 new parcels

Cloud: kinematicCloud
    Current number of parcels       = 260
    Current mass in system          = 0.00294053
    Linear momentum                 = (0.0514487 -0.00323215 -8.96482e-06)
   |Linear momentum|                = 0.0515501
    Linear kinetic energy           = 0.455231
    Average particle per parcel     = 1
    Injector model1:
      - parcels added               = 262
      - mass introduced             = 0.00296315
    Parcel fate: system (number, mass)
      - escape                      = 1, 1.13097e-05
    Parcel fate: patch inlet (number, mass)
      - escape                      = 0, 0
      - stick                       = 0, 0
    Parcel fate: patch outlet (number, mass)
      - escape                      = 0, 0
      - stick                       = 0, 0
    Parcel fate: patch upperAtm (number, mass)
      - escape                      = 1, 1.13097e-05
      - stick                       = 0, 0
    Parcel fate: patch ground (number, mass)
      - escape                      = 0, 0
      - stick                       = 0, 0
    Parcel fate: patch frontAtm (number, mass)
      - escape                      = 0, 0
      - stick                       = 0, 0
    Parcel fate: patch backAtm (number, mass)
      - escape                      = 1, 1.13097e-05
      - stick                       = 0, 0
    Rotational kinetic energy       = 0

PIMPLE: iteration 1
smoothSolver:  Solving for U.airx, Initial residual = 0.0227669, Final residual = 1.23307e-07, No Iterations 3
smoothSolver:  Solving for U.airy, Initial residual = 0.0177113, Final residual = 1.82549e-07, No Iterations 3
smoothSolver:  Solving for U.airz, Initial residual = 0.188304, Final residual = 6.15793e-08, No Iterations 4
GAMG:  Solving for p, Initial residual = 0.676294, Final residual = 0.0030571, No Iterations 3
GAMG:  Solving for p, Initial residual = 0.00253185, Final residual = 2.19301e-05, No Iterations 5
GAMG:  Solving for p, Initial residual = 2.10425e-05, Final residual = 9.26976e-07, No Iterations 4
time step continuity errors : sum local = 1.43226e-10, global = -1.38889e-10, cumulative = -2.41141e-10
PIMPLE: iteration 2
smoothSolver:  Solving for U.airx, Initial residual = 0.000178454, Final residual = 5.85157e-08, No Iterations 2
smoothSolver:  Solving for U.airy, Initial residual = 0.00049959, Final residual = 2.29174e-07, No Iterations 2
smoothSolver:  Solving for U.airz, Initial residual = 0.00687959, Final residual = 6.03269e-08, No Iterations 3
GAMG:  Solving for p, Initial residual = 0.0170932, Final residual = 0.000136357, No Iterations 2
GAMG:  Solving for p, Initial residual = 0.000136849, Final residual = 5.72396e-07, No Iterations 5
GAMG:  Solving for p, Initial residual = 5.72968e-07, Final residual = 5.72968e-07, No Iterations 0
time step continuity errors : sum local = 8.79635e-11, global = 6.82411e-11, cumulative = -1.729e-10
smoothSolver:  Solving for k.air, Initial residual = 0.0411118, Final residual = 1.56913e-07, No Iterations 3
bounding k.air, min: 0 max: 0.196597 average: 0.00545341
ExecutionTime = 1 s  ClockTime = 1 s

Courant Number mean: 0.0826198 max: 0.222483
deltaT = 0.00106993
Time = 0.00581959

Evolving kinematicCloud

Solving3-D cloud kinematicCloud

Cloud: kinematicCloud injector: model1
    Added 59 new parcels

Cloud: kinematicCloud
    Current number of parcels       = 319
    Current mass in system          = 0.00360781
    Linear momentum                 = (0.0629695 -0.0039304 -3.94602e-06)
   |Linear momentum|                = 0.0630921
    Linear kinetic energy           = 0.556295
    Average particle per parcel     = 1
    Injector model1:
      - parcels added               = 321
      - mass introduced             = 0.00363042
    Parcel fate: system (number, mass)
      - escape                      = 1, 1.13097e-05
    Parcel fate: patch inlet (number, mass)
      - escape                      = 0, 0
      - stick                       = 0, 0
    Parcel fate: patch outlet (number, mass)
      - escape                      = 0, 0
      - stick                       = 0, 0
    Parcel fate: patch upperAtm (number, mass)
      - escape                      = 1, 1.13097e-05
      - stick                       = 0, 0
    Parcel fate: patch ground (number, mass)
      - escape                      = 0, 0
      - stick                       = 0, 0
    Parcel fate: patch frontAtm (number, mass)
      - escape                      = 0, 0
      - stick                       = 0, 0
    Parcel fate: patch backAtm (number, mass)
      - escape                      = 1, 1.13097e-05
      - stick                       = 0, 0
    Rotational kinetic energy       = 0

PIMPLE: iteration 1
smoothSolver:  Solving for U.airx, Initial residual = 0.0240711, Final residual = 2.00008e-07, No Iterations 3
smoothSolver:  Solving for U.airy, Initial residual = 0.0217842, Final residual = 3.36513e-07, No Iterations 3
smoothSolver:  Solving for U.airz, Initial residual = 0.243468, Final residual = 1.18969e-07, No Iterations 4
GAMG:  Solving for p, Initial residual = 0.476851, Final residual = 0.00348891, No Iterations 3
GAMG:  Solving for p, Initial residual = 0.00493887, Final residual = 2.31353e-05, No Iterations 6
GAMG:  Solving for p, Initial residual = 2.1262e-05, Final residual = 9.88665e-07, No Iterations 4
time step continuity errors : sum local = 1.7061e-10, global = 1.6644e-10, cumulative = -6.46015e-12
PIMPLE: iteration 2
smoothSolver:  Solving for U.airx, Initial residual = 0.000223761, Final residual = 1.04731e-07, No Iterations 2
smoothSolver:  Solving for U.airy, Initial residual = 0.00070951, Final residual = 4.19527e-07, No Iterations 2
smoothSolver:  Solving for U.airz, Initial residual = 0.00849595, Final residual = 1.2498e-07, No Iterations 3
GAMG:  Solving for p, Initial residual = 0.0229683, Final residual = 8.77857e-05, No Iterations 3
GAMG:  Solving for p, Initial residual = 8.8355e-05, Final residual = 7.36337e-07, No Iterations 5
GAMG:  Solving for p, Initial residual = 7.37283e-07, Final residual = 7.37283e-07, No Iterations 0
time step continuity errors : sum local = 1.26092e-10, global = -1.08784e-10, cumulative = -1.15244e-10
smoothSolver:  Solving for k.air, Initial residual = 0.0317225, Final residual = 1.64644e-07, No Iterations 3
bounding k.air, min: 0 max: 0.24273 average: 0.00679474
ExecutionTime = 1.08 s  ClockTime = 1 s

Courant Number mean: 0.0991244 max: 0.268724
deltaT = 0.00128392
Time = 0.00710351

Evolving kinematicCloud

Solving3-D cloud kinematicCloud

Cloud: kinematicCloud injector: model1
    Added 70 new parcels

Cloud: kinematicCloud
    Current number of parcels       = 389
    Current mass in system          = 0.00439949
    Linear momentum                 = (0.0770044 -0.00456586 -4.21643e-05)
   |Linear momentum|                = 0.0771397
    Linear kinetic energy           = 0.682313
    Average particle per parcel     = 1
    Injector model1:
      - parcels added               = 391
      - mass introduced             = 0.00442211
    Parcel fate: system (number, mass)
      - escape                      = 1, 1.13097e-05
    Parcel fate: patch inlet (number, mass)
      - escape                      = 0, 0
      - stick                       = 0, 0
    Parcel fate: patch outlet (number, mass)
      - escape                      = 0, 0
      - stick                       = 0, 0
    Parcel fate: patch upperAtm (number, mass)
      - escape                      = 1, 1.13097e-05
      - stick                       = 0, 0
    Parcel fate: patch ground (number, mass)
      - escape                      = 0, 0
      - stick                       = 0, 0
    Parcel fate: patch frontAtm (number, mass)
      - escape                      = 0, 0
      - stick                       = 0, 0
    Parcel fate: patch backAtm (number, mass)
      - escape                      = 1, 1.13097e-05
      - stick                       = 0, 0
    Rotational kinetic energy       = 0

PIMPLE: iteration 1
smoothSolver:  Solving for U.airx, Initial residual = 0.0269919, Final residual = 3.13669e-07, No Iterations 3
smoothSolver:  Solving for U.airy, Initial residual = 0.0251072, Final residual = 5.15053e-07, No Iterations 3
smoothSolver:  Solving for U.airz, Initial residual = 0.2467, Final residual = 2.07766e-07, No Iterations 4
GAMG:  Solving for p, Initial residual = 0.658856, Final residual = 0.00364405, No Iterations 3
GAMG:  Solving for p, Initial residual = 0.00344922, Final residual = 1.72589e-05, No Iterations 6
GAMG:  Solving for p, Initial residual = 1.62646e-05, Final residual = 7.65046e-07, No Iterations 4
time step continuity errors : sum local = 2.00392e-10, global = -1.95546e-10, cumulative = -3.10791e-10
PIMPLE: iteration 2
smoothSolver:  Solving for U.airx, Initial residual = 0.000238996, Final residual = 1.66359e-07, No Iterations 2
smoothSolver:  Solving for U.airy, Initial residual = 0.000901444, Final residual = 8.17883e-07, No Iterations 2
smoothSolver:  Solving for U.airz, Initial residual = 0.0117945, Final residual = 2.82833e-07, No Iterations 3
GAMG:  Solving for p, Initial residual = 0.0260082, Final residual = 0.000259296, No Iterations 2
GAMG:  Solving for p, Initial residual = 0.000261011, Final residual = 1.5892e-06, No Iterations 5
GAMG:  Solving for p, Initial residual = 1.59279e-06, Final residual = 6.93466e-07, No Iterations 1
time step continuity errors : sum local = 1.79298e-10, global = 1.52517e-10, cumulative = -1.58273e-10
smoothSolver:  Solving for k.air, Initial residual = 0.0222014, Final residual = 3.14321e-07, No Iterations 3
bounding k.air, min: 0 max: 0.276273 average: 0.00793302
ExecutionTime = 1.16 s  ClockTime = 1 s

Courant Number mean: 0.11881 max: 0.296253
deltaT = 0.0015407
Time = 0.00864421

Evolving kinematicCloud

Solving3-D cloud kinematicCloud

Cloud: kinematicCloud injector: model1
    Added 85 new parcels

Cloud: kinematicCloud
    Current number of parcels       = 473
    Current mass in system          = 0.0053495
    Linear momentum                 = (0.0938171 -0.00520366 -6.70765e-05)
   |Linear momentum|                = 0.0939613
    Linear kinetic energy           = 0.833496
    Average particle per parcel     = 1
    Injector model1:
      - parcels added               = 476
      - mass introduced             = 0.00538343
    Parcel fate: system (number, mass)
      - escape                      = 2, 2.26195e-05
    Parcel fate: patch inlet (number, mass)
      - escape                      = 0, 0
      - stick                       = 0, 0
    Parcel fate: patch outlet (number, mass)
      - escape                      = 0, 0
      - stick                       = 0, 0
    Parcel fate: patch upperAtm (number, mass)
      - escape                      = 2, 2.26195e-05
      - stick                       = 0, 0
    Parcel fate: patch ground (number, mass)
      - escape                      = 0, 0
      - stick                       = 0, 0
    Parcel fate: patch frontAtm (number, mass)
      - escape                      = 0, 0
      - stick                       = 0, 0
    Parcel fate: patch backAtm (number, mass)
      - escape                      = 1, 1.13097e-05
      - stick                       = 0, 0
    Rotational kinetic energy       = 0

PIMPLE: iteration 1
smoothSolver:  Solving for U.airx, Initial residual = 0.0244618, Final residual = 4.79113e-07, No Iterations 3
smoothSolver:  Solving for U.airy, Initial residual = 0.0283537, Final residual = 9.78992e-07, No Iterations 3
smoothSolver:  Solving for U.airz, Initial residual = 0.240537, Final residual = 3.76696e-07, No Iterations 4
GAMG:  Solving for p, Initial residual = 0.539686, Final residual = 0.00162775, No Iterations 3
GAMG:  Solving for p, Initial residual = 0.00167336, Final residual = 1.34006e-05, No Iterations 4
GAMG:  Solving for p, Initial residual = 1.34869e-05, Final residual = 6.71106e-07, No Iterations 3
time step continuity errors : sum local = 2.3053e-10, global = 1.73755e-10, cumulative = 1.54815e-11
PIMPLE: iteration 2
smoothSolver:  Solving for U.airx, Initial residual = 0.000227177, Final residual = 2.21343e-07, No Iterations 2
smoothSolver:  Solving for U.airy, Initial residual = 0.0010306, Final residual = 4.59462e-08, No Iterations 3
smoothSolver:  Solving for U.airz, Initial residual = 0.0107964, Final residual = 3.47275e-07, No Iterations 3
GAMG:  Solving for p, Initial residual = 0.0272917, Final residual = 0.00019902, No Iterations 2
GAMG:  Solving for p, Initial residual = 0.000199554, Final residual = 1.31039e-06, No Iterations 4
GAMG:  Solving for p, Initial residual = 1.31008e-06, Final residual = 4.3718e-07, No Iterations 1
time step continuity errors : sum local = 1.4941e-10, global = -6.52214e-11, cumulative = -4.97399e-11
smoothSolver:  Solving for k.air, Initial residual = 0.0131091, Final residual = 8.15215e-07, No Iterations 3
bounding k.air, min: 0 max: 0.288663 average: 0.00873122
ExecutionTime = 1.23 s  ClockTime = 1 s

Courant Number mean: 0.142413 max: 0.31946
deltaT = 0.00184884
Time = 0.0104931

Evolving kinematicCloud

Solving3-D cloud kinematicCloud

Cloud: kinematicCloud injector: model1
    Added 102 new parcels

Cloud: kinematicCloud
    Current number of parcels       = 572
    Current mass in system          = 0.00646917
    Linear momentum                 = (0.113166 -0.00618807 -0.000113525)
   |Linear momentum|                = 0.113335
    Linear kinetic energy           = 1.00363
    Average particle per parcel     = 1
    Injector model1:
      - parcels added               = 578
      - mass introduced             = 0.00653703
    Parcel fate: system (number, mass)
      - escape                      = 5, 5.65487e-05
    Parcel fate: patch inlet (number, mass)
      - escape                      = 0, 0
      - stick                       = 0, 0
    Parcel fate: patch outlet (number, mass)
      - escape                      = 0, 0
      - stick                       = 0, 0
    Parcel fate: patch upperAtm (number, mass)
      - escape                      = 5, 5.65487e-05
      - stick                       = 0, 0
    Parcel fate: patch ground (number, mass)
      - escape                      = 0, 0
      - stick                       = 0, 0
    Parcel fate: patch frontAtm (number, mass)
      - escape                      = 0, 0
      - stick                       = 0, 0
    Parcel fate: patch backAtm (number, mass)
      - escape                      = 1, 1.13097e-05
      - stick                       = 0, 0
    Rotational kinetic energy       = 0

PIMPLE: iteration 1
smoothSolver:  Solving for U.airx, Initial residual = 0.0252052, Final residual = 8.97676e-07, No Iterations 3
smoothSolver:  Solving for U.airy, Initial residual = 0.0316104, Final residual = 6.29306e-08, No Iterations 4
smoothSolver:  Solving for U.airz, Initial residual = 0.243083, Final residual = 5.90734e-07, No Iterations 4
GAMG:  Solving for p, Initial residual = 0.516938, Final residual = 0.00236554, No Iterations 3
GAMG:  Solving for p, Initial residual = 0.0034018, Final residual = 2.09488e-05, No Iterations 6
GAMG:  Solving for p, Initial residual = 1.95569e-05, Final residual = 9.54979e-07, No Iterations 4
time step continuity errors : sum local = 3.33836e-10, global = 3.28861e-10, cumulative = 2.79121e-10
PIMPLE: iteration 2
smoothSolver:  Solving for U.airx, Initial residual = 0.000281469, Final residual = 3.91012e-07, No Iterations 2
smoothSolver:  Solving for U.airy, Initial residual = 0.00135136, Final residual = 9.00501e-08, No Iterations 3
smoothSolver:  Solving for U.airz, Initial residual = 0.0137867, Final residual = 6.69893e-07, No Iterations 3
GAMG:  Solving for p, Initial residual = 0.0387842, Final residual = 0.000335766, No Iterations 2
GAMG:  Solving for p, Initial residual = 0.000339282, Final residual = 2.21716e-06, No Iterations 5
GAMG:  Solving for p, Initial residual = 2.22496e-06, Final residual = 4.63336e-07, No Iterations 2
time step continuity errors : sum local = 1.5904e-10, global = -1.52571e-10, cumulative = 1.2655e-10
smoothSolver:  Solving for k.air, Initial residual = 0.0177278, Final residual = 6.90483e-08, No Iterations 4
bounding k.air, min: 0 max: 0.276927 average: 0.00920556
ExecutionTime = 1.31 s  ClockTime = 1 s

Courant Number mean: 0.1708 max: 0.370503
deltaT = 0.00221861
Time = 0.0127117

Evolving kinematicCloud

Solving3-D cloud kinematicCloud

Cloud: kinematicCloud injector: model1
    Added 123 new parcels

Cloud: kinematicCloud
    Current number of parcels       = 693
    Current mass in system          = 0.00783765
    Linear momentum                 = (0.137128 -0.00720738 -9.52164e-05)
   |Linear momentum|                = 0.137317
    Linear kinetic energy           = 1.21764
    Average particle per parcel     = 1
    Injector model1:
      - parcels added               = 701
      - mass introduced             = 0.00792812
    Parcel fate: system (number, mass)
      - escape                      = 7, 7.91681e-05
    Parcel fate: patch inlet (number, mass)
      - escape                      = 0, 0
      - stick                       = 0, 0
    Parcel fate: patch outlet (number, mass)
      - escape                      = 0, 0
      - stick                       = 0, 0
    Parcel fate: patch upperAtm (number, mass)
      - escape                      = 7, 7.91681e-05
      - stick                       = 0, 0
    Parcel fate: patch ground (number, mass)
      - escape                      = 0, 0
      - stick                       = 0, 0
    Parcel fate: patch frontAtm (number, mass)
      - escape                      = 0, 0
      - stick                       = 0, 0
    Parcel fate: patch backAtm (number, mass)
      - escape                      = 1, 1.13097e-05
      - stick                       = 0, 0
    Rotational kinetic energy       = 0

PIMPLE: iteration 1
smoothSolver:  Solving for U.airx, Initial residual = 0.0276809, Final residual = 9.62094e-08, No Iterations 4
smoothSolver:  Solving for U.airy, Initial residual = 0.0368853, Final residual = 1.61224e-07, No Iterations 4
smoothSolver:  Solving for U.airz, Initial residual = 0.243797, Final residual = 8.38076e-07, No Iterations 4
GAMG:  Solving for p, Initial residual = 0.677954, Final residual = 0.00287275, No Iterations 3
GAMG:  Solving for p, Initial residual = 0.00236093, Final residual = 1.12414e-05, No Iterations 6
GAMG:  Solving for p, Initial residual = 1.07862e-05, Final residual = 5.04595e-07, No Iterations 4
time step continuity errors : sum local = 3.40726e-10, global = -3.33011e-10, cumulative = -2.06461e-10
PIMPLE: iteration 2
smoothSolver:  Solving for U.airx, Initial residual = 0.000342509, Final residual = 6.91995e-07, No Iterations 2
smoothSolver:  Solving for U.airy, Initial residual = 0.00202587, Final residual = 2.36014e-07, No Iterations 3
smoothSolver:  Solving for U.airz, Initial residual = 0.0176476, Final residual = 9.23383e-08, No Iterations 4
GAMG:  Solving for p, Initial residual = 0.035822, Final residual = 0.000307755, No Iterations 2
GAMG:  Solving for p, Initial residual = 0.000311985, Final residual = 1.68434e-06, No Iterations 5
GAMG:  Solving for p, Initial residual = 1.68888e-06, Final residual = 7.30886e-07, No Iterations 1
time step continuity errors : sum local = 4.80985e-10, global = 4.14071e-10, cumulative = 2.07609e-10
smoothSolver:  Solving for k.air, Initial residual = 0.0316255, Final residual = 1.64348e-07, No Iterations 4
bounding k.air, min: 0 max: 0.245729 average: 0.0095801
ExecutionTime = 1.39 s  ClockTime = 1 s

Courant Number mean: 0.204619 max: 0.428377
deltaT = 0.00263294
Time = 0.0153446

Evolving kinematicCloud

Solving3-D cloud kinematicCloud

Cloud: kinematicCloud injector: model1
    Added 145 new parcels

Cloud: kinematicCloud
    Current number of parcels       = 835
    Current mass in system          = 0.00944363
    Linear momentum                 = (0.165202 -0.00816841 -0.000230243)
   |Linear momentum|                = 0.165404
    Linear kinetic energy           = 1.46758
    Average particle per parcel     = 1
    Injector model1:
      - parcels added               = 846
      - mass introduced             = 0.00956803
    Parcel fate: system (number, mass)
      - escape                      = 10, 0.000113097
    Parcel fate: patch inlet (number, mass)
      - escape                      = 0, 0
      - stick                       = 0, 0
    Parcel fate: patch outlet (number, mass)
      - escape                      = 0, 0
      - stick                       = 0, 0
    Parcel fate: patch upperAtm (number, mass)
      - escape                      = 10, 0.000113097
      - stick                       = 0, 0
    Parcel fate: patch ground (number, mass)
      - escape                      = 0, 0
      - stick                       = 0, 0
    Parcel fate: patch frontAtm (number, mass)
      - escape                      = 0, 0
      - stick                       = 0, 0
    Parcel fate: patch backAtm (number, mass)
      - escape                      = 1, 1.13097e-05
      - stick                       = 0, 0
    Rotational kinetic energy       = 0

PIMPLE: iteration 1
smoothSolver:  Solving for U.airx, Initial residual = 0.026102, Final residual = 1.77065e-07, No Iterations 4
smoothSolver:  Solving for U.airy, Initial residual = 0.0488168, Final residual = 2.9367e-07, No Iterations 4
smoothSolver:  Solving for U.airz, Initial residual = 0.26876, Final residual = 7.2558e-08, No Iterations 5
GAMG:  Solving for p, Initial residual = 0.618407, Final residual = 0.00203968, No Iterations 3
GAMG:  Solving for p, Initial residual = 0.0018763, Final residual = 1.68789e-05, No Iterations 4
GAMG:  Solving for p, Initial residual = 1.66514e-05, Final residual = 6.77518e-07, No Iterations 3
time step continuity errors : sum local = 6.72723e-10, global = -4.40387e-10, cumulative = -2.32777e-10
PIMPLE: iteration 2
smoothSolver:  Solving for U.airx, Initial residual = 0.000541259, Final residual = 6.9555e-08, No Iterations 3
smoothSolver:  Solving for U.airy, Initial residual = 0.00331568, Final residual = 4.87541e-07, No Iterations 3
smoothSolver:  Solving for U.airz, Initial residual = 0.0313721, Final residual = 2.15695e-07, No Iterations 4
GAMG:  Solving for p, Initial residual = 0.0479018, Final residual = 0.000386543, No Iterations 2
GAMG:  Solving for p, Initial residual = 0.000392729, Final residual = 2.36818e-06, No Iterations 4
GAMG:  Solving for p, Initial residual = 2.36956e-06, Final residual = 6.85889e-07, No Iterations 1
time step continuity errors : sum local = 6.59709e-10, global = 1.03513e-10, cumulative = -1.29264e-10
smoothSolver:  Solving for k.air, Initial residual = 0.0432128, Final residual = 3.56434e-07, No Iterations 4
bounding k.air, min: -6.74048e-06 max: 0.227168 average: 0.0102338
ExecutionTime = 1.46 s  ClockTime = 1 s

Courant Number mean: 0.242385 max: 0.460561
deltaT = 0.00309028
Time = 0.0184349

Evolving kinematicCloud

Solving3-D cloud kinematicCloud

Cloud: kinematicCloud injector: model1
    Added 171 new parcels

Cloud: kinematicCloud
    Current number of parcels       = 1004
    Current mass in system          = 0.011355
    Linear momentum                 = (0.19973 -0.00860887 -0.0003097)
   |Linear momentum|                = 0.199915
    Linear kinetic energy           = 1.78506
    Average particle per parcel     = 1
    Injector model1:
      - parcels added               = 1017
      - mass introduced             = 0.011502
    Parcel fate: system (number, mass)
      - escape                      = 12, 0.000135717
    Parcel fate: patch inlet (number, mass)
      - escape                      = 0, 0
      - stick                       = 0, 0
    Parcel fate: patch outlet (number, mass)
      - escape                      = 0, 0
      - stick                       = 0, 0
    Parcel fate: patch upperAtm (number, mass)
      - escape                      = 12, 0.000135717
      - stick                       = 0, 0
    Parcel fate: patch ground (number, mass)
      - escape                      = 0, 0
      - stick                       = 0, 0
    Parcel fate: patch frontAtm (number, mass)
      - escape                      = 0, 0
      - stick                       = 0, 0
    Parcel fate: patch backAtm (number, mass)
      - escape                      = 1, 1.13097e-05
      - stick                       = 0, 0
    Rotational kinetic energy       = 0

PIMPLE: iteration 1
smoothSolver:  Solving for U.airx, Initial residual = 0.0269221, Final residual = 3.30062e-07, No Iterations 4
smoothSolver:  Solving for U.airy, Initial residual = 0.0587954, Final residual = 5.64447e-07, No Iterations 4
smoothSolver:  Solving for U.airz, Initial residual = 0.329685, Final residual = 1.62689e-07, No Iterations 5
GAMG:  Solving for p, Initial residual = 0.512028, Final residual = 0.00305016, No Iterations 3
GAMG:  Solving for p, Initial residual = 0.00384184, Final residual = 3.77685e-05, No Iterations 5
GAMG:  Solving for p, Initial residual = 3.51096e-05, Final residual = 7.09344e-07, No Iterations 5
time step continuity errors : sum local = 7.98728e-10, global = 7.8062e-10, cumulative = 6.51356e-10
PIMPLE: iteration 2
smoothSolver:  Solving for U.airx, Initial residual = 0.000752469, Final residual = 1.62072e-07, No Iterations 3
smoothSolver:  Solving for U.airy, Initial residual = 0.00480167, Final residual = 9.97103e-07, No Iterations 3
smoothSolver:  Solving for U.airz, Initial residual = 0.0402099, Final residual = 4.17519e-07, No Iterations 4
GAMG:  Solving for p, Initial residual = 0.058491, Final residual = 0.000217222, No Iterations 3
GAMG:  Solving for p, Initial residual = 0.000224393, Final residual = 1.40061e-06, No Iterations 5
GAMG:  Solving for p, Initial residual = 1.40482e-06, Final residual = 5.98542e-07, No Iterations 1
time step continuity errors : sum local = 6.40541e-10, global = -5.75974e-10, cumulative = 7.53814e-11
smoothSolver:  Solving for k.air, Initial residual = 0.0502582, Final residual = 7.49403e-07, No Iterations 4
bounding k.air, min: -1.25042e-05 max: 0.333209 average: 0.0115658
ExecutionTime = 1.55 s  ClockTime = 1 s

Courant Number mean: 0.284424 max: 0.499129
deltaT = 0.00358559
Time = 0.0220205

Evolving kinematicCloud

Solving3-D cloud kinematicCloud

Cloud: kinematicCloud injector: model1
    Added 198 new parcels

Cloud: kinematicCloud
    Current number of parcels       = 1199
    Current mass in system          = 0.0135604
    Linear momentum                 = (0.239478 -0.00912632 -0.00029693)
   |Linear momentum|                = 0.239652
    Linear kinetic energy           = 2.14844
    Average particle per parcel     = 1
    Injector model1:
      - parcels added               = 1215
      - mass introduced             = 0.0137413
    Parcel fate: system (number, mass)
      - escape                      = 15, 0.000169646
    Parcel fate: patch inlet (number, mass)
      - escape                      = 0, 0
      - stick                       = 0, 0
    Parcel fate: patch outlet (number, mass)
      - escape                      = 0, 0
      - stick                       = 0, 0
    Parcel fate: patch upperAtm (number, mass)
      - escape                      = 15, 0.000169646
      - stick                       = 0, 0
    Parcel fate: patch ground (number, mass)
      - escape                      = 0, 0
      - stick                       = 0, 0
    Parcel fate: patch frontAtm (number, mass)
      - escape                      = 0, 0
      - stick                       = 0, 0
    Parcel fate: patch backAtm (number, mass)
      - escape                      = 1, 1.13097e-05
      - stick                       = 0, 0
    Rotational kinetic energy       = 0

PIMPLE: iteration 1
smoothSolver:  Solving for U.airx, Initial residual = 0.0297204, Final residual = 6.7455e-07, No Iterations 4
smoothSolver:  Solving for U.airy, Initial residual = 0.0622924, Final residual = 1.21465e-07, No Iterations 5
smoothSolver:  Solving for U.airz, Initial residual = 0.295456, Final residual = 2.63217e-07, No Iterations 5
GAMG:  Solving for p, Initial residual = 0.629169, Final residual = 0.0026617, No Iterations 3
GAMG:  Solving for p, Initial residual = 0.0031901, Final residual = 2.50217e-05, No Iterations 5
GAMG:  Solving for p, Initial residual = 2.38301e-05, Final residual = 4.84003e-07, No Iterations 5
time step continuity errors : sum local = 5.99331e-10, global = -5.86849e-10, cumulative = -5.11467e-10
PIMPLE: iteration 2
smoothSolver:  Solving for U.airx, Initial residual = 0.000840633, Final residual = 2.71377e-07, No Iterations 3
smoothSolver:  Solving for U.airy, Initial residual = 0.00541743, Final residual = 1.22918e-07, No Iterations 4
smoothSolver:  Solving for U.airz, Initial residual = 0.0486235, Final residual = 7.29794e-07, No Iterations 4
GAMG:  Solving for p, Initial residual = 0.0777333, Final residual = 0.000199036, No Iterations 3
GAMG:  Solving for p, Initial residual = 0.000206678, Final residual = 9.74314e-07, No Iterations 5
GAMG:  Solving for p, Initial residual = 9.7633e-07, Final residual = 9.7633e-07, No Iterations 0
time step continuity errors : sum local = 1.13138e-09, global = 9.50065e-10, cumulative = 4.38598e-10
smoothSolver:  Solving for k.air, Initial residual = 0.0514997, Final residual = 1.51198e-07, No Iterations 5
bounding k.air, min: -1.45088e-06 max: 0.467284 average: 0.0138497
ExecutionTime = 1.62 s  ClockTime = 1 s

Courant Number mean: 0.329902 max: 0.578248
deltaT = 0.00408166
Time = 0.0261021

Evolving kinematicCloud

Solving3-D cloud kinematicCloud

Cloud: kinematicCloud injector: model1
    Added 225 new parcels

Cloud: kinematicCloud
    Current number of parcels       = 1422
    Current mass in system          = 0.0160824
    Linear momentum                 = (0.285019 -0.00944448 -0.000334615)
   |Linear momentum|                = 0.285175
    Linear kinetic energy           = 2.56617
    Average particle per parcel     = 1
    Injector model1:
      - parcels added               = 1440
      - mass introduced             = 0.016286
    Parcel fate: system (number, mass)
      - escape                      = 17, 0.000192265
    Parcel fate: patch inlet (number, mass)
      - escape                      = 0, 0
      - stick                       = 0, 0
    Parcel fate: patch outlet (number, mass)
      - escape                      = 0, 0
      - stick                       = 0, 0
    Parcel fate: patch upperAtm (number, mass)
      - escape                      = 17, 0.000192265
      - stick                       = 0, 0
    Parcel fate: patch ground (number, mass)
      - escape                      = 0, 0
      - stick                       = 0, 0
    Parcel fate: patch frontAtm (number, mass)
      - escape                      = 0, 0
      - stick                       = 0, 0
    Parcel fate: patch backAtm (number, mass)
      - escape                      = 1, 1.13097e-05
      - stick                       = 0, 0
    Rotational kinetic energy       = 0

PIMPLE: iteration 1
smoothSolver:  Solving for U.airx, Initial residual = 0.0274904, Final residual = 1.28454e-07, No Iterations 5
smoothSolver:  Solving for U.airy, Initial residual = 0.0653025, Final residual = 2.71997e-07, No Iterations 5
smoothSolver:  Solving for U.airz, Initial residual = 0.32091, Final residual = 5.73872e-07, No Iterations 5
GAMG:  Solving for p, Initial residual = 0.726311, Final residual = 0.00659664, No Iterations 2
GAMG:  Solving for p, Initial residual = 0.00541781, Final residual = 3.72485e-05, No Iterations 5
GAMG:  Solving for p, Initial residual = 3.43917e-05, Final residual = 7.05414e-07, No Iterations 5
time step continuity errors : sum local = 1.38981e-09, global = -1.36718e-09, cumulative = -9.28579e-10
PIMPLE: iteration 2
smoothSolver:  Solving for U.airx, Initial residual = 0.000758894, Final residual = 3.33564e-07, No Iterations 3
smoothSolver:  Solving for U.airy, Initial residual = 0.00597719, Final residual = 2.12868e-07, No Iterations 4
smoothSolver:  Solving for U.airz, Initial residual = 0.0512717, Final residual = 8.99001e-08, No Iterations 5
GAMG:  Solving for p, Initial residual = 0.0658486, Final residual = 0.000420068, No Iterations 2
GAMG:  Solving for p, Initial residual = 0.000432586, Final residual = 1.76308e-06, No Iterations 5
GAMG:  Solving for p, Initial residual = 1.76999e-06, Final residual = 7.29034e-07, No Iterations 1
time step continuity errors : sum local = 1.3588e-09, global = 1.23215e-09, cumulative = 3.03572e-10
smoothSolver:  Solving for k.air, Initial residual = 0.0476728, Final residual = 3.38493e-07, No Iterations 5
bounding k.air, min: 0 max: 0.618275 average: 0.0171219
ExecutionTime = 1.71 s  ClockTime = 2 s

Courant Number mean: 0.375084 max: 0.59984
deltaT = 0.00462602
Time = 0.0307282

Evolving kinematicCloud

Solving3-D cloud kinematicCloud

Cloud: kinematicCloud injector: model1
    Added 255 new parcels

Cloud: kinematicCloud
    Current number of parcels       = 1672
    Current mass in system          = 0.0189099
    Linear momentum                 = (0.334867 -0.00936047 -0.000318255)
   |Linear momentum|                = 0.334998
    Linear kinetic energy           = 3.02027
    Average particle per parcel     = 1
    Injector model1:
      - parcels added               = 1695
      - mass introduced             = 0.01917
    Parcel fate: system (number, mass)
      - escape                      = 22, 0.000248814
    Parcel fate: patch inlet (number, mass)
      - escape                      = 0, 0
      - stick                       = 0, 0
    Parcel fate: patch outlet (number, mass)
      - escape                      = 0, 0
      - stick                       = 0, 0
    Parcel fate: patch upperAtm (number, mass)
      - escape                      = 22, 0.000248814
      - stick                       = 0, 0
    Parcel fate: patch ground (number, mass)
      - escape                      = 0, 0
      - stick                       = 0, 0
    Parcel fate: patch frontAtm (number, mass)
      - escape                      = 0, 0
      - stick                       = 0, 0
    Parcel fate: patch backAtm (number, mass)
      - escape                      = 1, 1.13097e-05
      - stick                       = 0, 0
    Rotational kinetic energy       = 0

PIMPLE: iteration 1
smoothSolver:  Solving for U.airx, Initial residual = 0.0269834, Final residual = 3.04064e-07, No Iterations 5
smoothSolver:  Solving for U.airy, Initial residual = 0.0798943, Final residual = 7.57499e-07, No Iterations 5
smoothSolver:  Solving for U.airz, Initial residual = 0.299729, Final residual = 1.31178e-07, No Iterations 6
GAMG:  Solving for p, Initial residual = 0.509805, Final residual = 0.00184984, No Iterations 3
GAMG:  Solving for p, Initial residual = 0.00268038, Final residual = 1.78063e-05, No Iterations 6
GAMG:  Solving for p, Initial residual = 1.80933e-05, Final residual = 8.76415e-07, No Iterations 4
time step continuity errors : sum local = 1.4057e-09, global = 1.3886e-09, cumulative = 1.69217e-09
PIMPLE: iteration 2
smoothSolver:  Solving for U.airx, Initial residual = 0.000768598, Final residual = 6.2333e-07, No Iterations 3
smoothSolver:  Solving for U.airy, Initial residual = 0.00749733, Final residual = 4.51421e-07, No Iterations 4
smoothSolver:  Solving for U.airz, Initial residual = 0.0494985, Final residual = 1.43168e-07, No Iterations 5
GAMG:  Solving for p, Initial residual = 0.106944, Final residual = 0.000868202, No Iterations 2
GAMG:  Solving for p, Initial residual = 0.000911222, Final residual = 5.04659e-06, No Iterations 5
GAMG:  Solving for p, Initial residual = 5.08282e-06, Final residual = 4.73952e-07, No Iterations 3
time step continuity errors : sum local = 6.9511e-10, global = -6.71869e-10, cumulative = 1.0203e-09
smoothSolver:  Solving for k.air, Initial residual = 0.0418779, Final residual = 6.1611e-07, No Iterations 5
bounding k.air, min: -0.000129812 max: 0.767364 average: 0.0212349
ExecutionTime = 1.79 s  ClockTime = 2 s

Courant Number mean: 0.424993 max: 0.719009
deltaT = 0.00514073
Time = 0.0358689

Evolving kinematicCloud

Solving3-D cloud kinematicCloud

Cloud: kinematicCloud injector: model1
    Added 284 new parcels

Cloud: kinematicCloud
    Current number of parcels       = 1946
    Current mass in system          = 0.0220087
    Linear momentum                 = (0.388998 -0.00950398 -0.000333311)
   |Linear momentum|                = 0.389114
    Linear kinetic energy           = 3.50758
    Average particle per parcel     = 1
    Injector model1:
      - parcels added               = 1979
      - mass introduced             = 0.022382
    Parcel fate: system (number, mass)
      - escape                      = 32, 0.000361911
    Parcel fate: patch inlet (number, mass)
      - escape                      = 0, 0
      - stick                       = 0, 0
    Parcel fate: patch outlet (number, mass)
      - escape                      = 0, 0
      - stick                       = 0, 0
    Parcel fate: patch upperAtm (number, mass)
      - escape                      = 32, 0.000361911
      - stick                       = 0, 0
    Parcel fate: patch ground (number, mass)
      - escape                      = 0, 0
      - stick                       = 0, 0
    Parcel fate: patch frontAtm (number, mass)
      - escape                      = 0, 0
      - stick                       = 0, 0
    Parcel fate: patch backAtm (number, mass)
      - escape                      = 1, 1.13097e-05
      - stick                       = 0, 0
    Rotational kinetic energy       = 0

PIMPLE: iteration 1
smoothSolver:  Solving for U.airx, Initial residual = 0.0270372, Final residual = 6.97706e-07, No Iterations 5
smoothSolver:  Solving for U.airy, Initial residual = 0.0836145, Final residual = 2.47666e-07, No Iterations 6
smoothSolver:  Solving for U.airz, Initial residual = 0.282846, Final residual = 3.54555e-07, No Iterations 6
GAMG:  Solving for p, Initial residual = 0.795921, Final residual = 0.00209147, No Iterations 3
GAMG:  Solving for p, Initial residual = 0.00175869, Final residual = 9.36274e-06, No Iterations 6
GAMG:  Solving for p, Initial residual = 9.04437e-06, Final residual = 9.19988e-07, No Iterations 3
time step continuity errors : sum local = 2.05508e-09, global = -2.01581e-09, cumulative = -9.95515e-10
PIMPLE: iteration 2
smoothSolver:  Solving for U.airx, Initial residual = 0.000789262, Final residual = 1.12846e-07, No Iterations 4
smoothSolver:  Solving for U.airy, Initial residual = 0.00869565, Final residual = 9.02505e-07, No Iterations 4
smoothSolver:  Solving for U.airz, Initial residual = 0.0491873, Final residual = 3.08597e-07, No Iterations 5
GAMG:  Solving for p, Initial residual = 0.101914, Final residual = 0.00078212, No Iterations 2
GAMG:  Solving for p, Initial residual = 0.000816201, Final residual = 3.88665e-06, No Iterations 5
GAMG:  Solving for p, Initial residual = 3.9099e-06, Final residual = 7.92378e-07, No Iterations 2
time step continuity errors : sum local = 1.62877e-09, global = 1.51596e-09, cumulative = 5.20444e-10
smoothSolver:  Solving for k.air, Initial residual = 0.0353224, Final residual = 9.84704e-07, No Iterations 5
bounding k.air, min: -5.78022e-05 max: 0.890481 average: 0.0258636
ExecutionTime = 1.87 s  ClockTime = 2 s

Courant Number mean: 0.471896 max: 0.689988
deltaT = 0.00573677
Time = 0.0416057

Evolving kinematicCloud

Solving3-D cloud kinematicCloud

Cloud: kinematicCloud injector: model1
    Added 317 new parcels

Cloud: kinematicCloud
    Current number of parcels       = 2255
    Current mass in system          = 0.0255034
    Linear momentum                 = (0.450637 -0.00917385 -0.000338502)
   |Linear momentum|                = 0.450731
    Linear kinetic energy           = 4.06557
    Average particle per parcel     = 1
    Injector model1:
      - parcels added               = 2296
      - mass introduced             = 0.0259671
    Parcel fate: system (number, mass)
      - escape                      = 39, 0.00044108
    Parcel fate: patch inlet (number, mass)
      - escape                      = 0, 0
      - stick                       = 0, 0
    Parcel fate: patch outlet (number, mass)
      - escape                      = 0, 0
      - stick                       = 0, 0
    Parcel fate: patch upperAtm (number, mass)
      - escape                      = 39, 0.00044108
      - stick                       = 0, 0
    Parcel fate: patch ground (number, mass)
      - escape                      = 0, 0
      - stick                       = 0, 0
    Parcel fate: patch frontAtm (number, mass)
      - escape                      = 1, 1.13097e-05
      - stick                       = 0, 0
    Parcel fate: patch backAtm (number, mass)
      - escape                      = 1, 1.13097e-05
      - stick                       = 0, 0
    Rotational kinetic energy       = 0

PIMPLE: iteration 1
[...]

Courant Number mean: 0.628709 max: 0.853686
deltaT = 0.00637999
Time = 4.973181821897966

Evolving kinematicCloud

Solving3-D cloud kinematicCloud

Cloud: kinematicCloud injector: model1
    Added 352 new parcels

Cloud: kinematicCloud
    Current number of parcels       = 22108
    Current mass in system          = 0.250036
    Linear momentum                 = (3.7428 0.0134523 -0.00281669)
   |Linear momentum|                = 3.74282
    Linear kinetic energy           = 32.6523
    Average particle per parcel     = 1
    Injector model1:
      - parcels added               = 274226
      - mass introduced             = 3.10142
    Parcel fate: system (number, mass)
      - escape                      = 248345, 2.80872
    Parcel fate: patch inlet (number, mass)
      - escape                      = 0, 0
      - stick                       = 0, 0
    Parcel fate: patch outlet (number, mass)
      - escape                      = 241451, 2.73072
      - stick                       = 0, 0
    Parcel fate: patch upperAtm (number, mass)
      - escape                      = 6894, 0.0779693
      - stick                       = 0, 0
    Parcel fate: patch ground (number, mass)
      - escape                      = 0, 0
      - stick                       = 0, 0
    Parcel fate: patch frontAtm (number, mass)
      - escape                      = 1917, 0.0216809
      - stick                       = 0, 0
    Parcel fate: patch backAtm (number, mass)
      - escape                      = 1856, 0.0209908
      - stick                       = 0, 0
    Rotational kinetic energy       = 0

PIMPLE: iteration 1
smoothSolver:  Solving for U.airx, Initial residual = 0.00989936, Final residual = 7.96439e-07, No Iterations 6
smoothSolver:  Solving for U.airy, Initial residual = 0.158278, Final residual = 6.10555e-07, No Iterations 8
smoothSolver:  Solving for U.airz, Initial residual = 0.162525, Final residual = 5.73282e-07, No Iterations 8
GAMG:  Solving for p, Initial residual = 0.614361, Final residual = 0.00546134, No Iterations 2
GAMG:  Solving for p, Initial residual = 0.00497616, Final residual = 4.26064e-05, No Iterations 5
GAMG:  Solving for p, Initial residual = 3.94323e-05, Final residual = 8.58474e-07, No Iterations 5
time step continuity errors : sum local = 2.93052e-09, global = 2.89574e-09, cumulative = -6.37593e-08
PIMPLE: iteration 2
smoothSolver:  Solving for U.airx, Initial residual = 0.000261582, Final residual = 1.88154e-07, No Iterations 4
smoothSolver:  Solving for U.airy, Initial residual = 0.0126423, Final residual = 2.42575e-07, No Iterations 6
smoothSolver:  Solving for U.airz, Initial residual = 0.009724, Final residual = 7.37276e-07, No Iterations 5
GAMG:  Solving for p, Initial residual = 0.099466, Final residual = 0.000633782, No Iterations 2
GAMG:  Solving for p, Initial residual = 0.000664284, Final residual = 3.55082e-06, No Iterations 5
GAMG:  Solving for p, Initial residual = 3.57604e-06, Final residual = 7.34888e-07, No Iterations 2
time step continuity errors : sum local = 2.30429e-09, global = -2.21538e-09, cumulative = -6.59746e-08
smoothSolver:  Solving for k.air, Initial residual = 0.0120995, Final residual = 3.00318e-07, No Iterations 5
bounding k.air, min: -0.0806789 max: 3.4229 average: 0.150917
ExecutionTime = 89.46 s  ClockTime = 90 s

Courant Number mean: 0.58917 max: 0.79862
deltaT = 0.00639102
Time = 4.979572839514906

Evolving kinematicCloud

Solving3-D cloud kinematicCloud

Cloud: kinematicCloud injector: model1
    Added 352 new parcels

Cloud: kinematicCloud
    Current number of parcels       = 22113
    Current mass in system          = 0.250092
    Linear momentum                 = (3.74501 0.0133724 -0.00294581)
   |Linear momentum|                = 3.74503
    Linear kinetic energy           = 32.674
    Average particle per parcel     = 1
    Injector model1:
      - parcels added               = 274578
      - mass introduced             = 3.1054
    Parcel fate: system (number, mass)
      - escape                      = 248687, 2.81258
    Parcel fate: patch inlet (number, mass)
      - escape                      = 0, 0
      - stick                       = 0, 0
    Parcel fate: patch outlet (number, mass)
      - escape                      = 241781, 2.73446
      - stick                       = 0, 0
    Parcel fate: patch upperAtm (number, mass)
      - escape                      = 6906, 0.078105
      - stick                       = 0, 0
    Parcel fate: patch ground (number, mass)
      - escape                      = 0, 0
      - stick                       = 0, 0
    Parcel fate: patch frontAtm (number, mass)
      - escape                      = 1920, 0.0217148
      - stick                       = 0, 0
    Parcel fate: patch backAtm (number, mass)
      - escape                      = 1858, 0.0210134
      - stick                       = 0, 0
    Rotational kinetic energy       = 0

PIMPLE: iteration 1
smoothSolver:  Solving for U.airx, Initial residual = 0.0101245, Final residual = 7.43425e-07, No Iterations 6
smoothSolver:  Solving for U.airy, Initial residual = 0.162394, Final residual = 5.53518e-07, No Iterations 8
smoothSolver:  Solving for U.airz, Initial residual = 0.167989, Final residual = 5.22365e-07, No Iterations 8
GAMG:  Solving for p, Initial residual = 0.582193, Final residual = 0.00564897, No Iterations 2
GAMG:  Solving for p, Initial residual = 0.00604659, Final residual = 3.87477e-05, No Iterations 5
GAMG:  Solving for p, Initial residual = 3.56856e-05, Final residual = 7.38798e-07, No Iterations 5
time step continuity errors : sum local = 2.45184e-09, global = -2.42719e-09, cumulative = -6.84018e-08
PIMPLE: iteration 2
smoothSolver:  Solving for U.airx, Initial residual = 0.00029468, Final residual = 2.12093e-07, No Iterations 4
smoothSolver:  Solving for U.airy, Initial residual = 0.0133569, Final residual = 2.61661e-07, No Iterations 6
smoothSolver:  Solving for U.airz, Initial residual = 0.0113057, Final residual = 9.05194e-07, No Iterations 5
GAMG:  Solving for p, Initial residual = 0.105284, Final residual = 0.000704163, No Iterations 2
GAMG:  Solving for p, Initial residual = 0.000738491, Final residual = 6.29026e-06, No Iterations 4
GAMG:  Solving for p, Initial residual = 6.32163e-06, Final residual = 9.47854e-07, No Iterations 2
time step continuity errors : sum local = 2.88654e-09, global = 2.39247e-09, cumulative = -6.60094e-08
smoothSolver:  Solving for k.air, Initial residual = 0.0120117, Final residual = 2.80555e-07, No Iterations 5
bounding k.air, min: -0.0802089 max: 3.38 average: 0.150781
ExecutionTime = 89.56 s  ClockTime = 90 s

Courant Number mean: 0.59017 max: 0.88836
deltaT = 0.00575534
Time = 4.985328181503927

Evolving kinematicCloud

Solving3-D cloud kinematicCloud

Cloud: kinematicCloud injector: model1
    Added 317 new parcels

Cloud: kinematicCloud
    Current number of parcels       = 22124
    Current mass in system          = 0.250217
    Linear momentum                 = (3.74843 0.013306 -0.00290819)
   |Linear momentum|                = 3.74845
    Linear kinetic energy           = 32.712
    Average particle per parcel     = 1
    Injector model1:
      - parcels added               = 274895
      - mass introduced             = 3.10899
    Parcel fate: system (number, mass)
      - escape                      = 248988, 2.81599
    Parcel fate: patch inlet (number, mass)
      - escape                      = 0, 0
      - stick                       = 0, 0
    Parcel fate: patch outlet (number, mass)
      - escape                      = 242070, 2.73773
      - stick                       = 0, 0
    Parcel fate: patch upperAtm (number, mass)
      - escape                      = 6918, 0.0782407
      - stick                       = 0, 0
    Parcel fate: patch ground (number, mass)
      - escape                      = 0, 0
      - stick                       = 0, 0
    Parcel fate: patch frontAtm (number, mass)
      - escape                      = 1920, 0.0217148
      - stick                       = 0, 0
    Parcel fate: patch backAtm (number, mass)
      - escape                      = 1863, 0.02107
      - stick                       = 0, 0
    Rotational kinetic energy       = 0

PIMPLE: iteration 1
smoothSolver:  Solving for U.airx, Initial residual = 0.0093394, Final residual = 3.77451e-07, No Iterations 6
smoothSolver:  Solving for U.airy, Initial residual = 0.150019, Final residual = 2.34637e-07, No Iterations 8
smoothSolver:  Solving for U.airz, Initial residual = 0.155683, Final residual = 2.2042e-07, No Iterations 8
GAMG:  Solving for p, Initial residual = 0.610483, Final residual = 0.00247271, No Iterations 3
GAMG:  Solving for p, Initial residual = 0.00220036, Final residual = 8.83648e-06, No Iterations 5
GAMG:  Solving for p, Initial residual = 8.64632e-06, Final residual = 5.91034e-07, No Iterations 3
time step continuity errors : sum local = 1.871e-09, global = 1.80126e-09, cumulative = -6.42081e-08
PIMPLE: iteration 2
smoothSolver:  Solving for U.airx, Initial residual = 0.000318689, Final residual = 1.69888e-07, No Iterations 4
smoothSolver:  Solving for U.airy, Initial residual = 0.0140475, Final residual = 1.85369e-07, No Iterations 6
smoothSolver:  Solving for U.airz, Initial residual = 0.0112585, Final residual = 5.67883e-07, No Iterations 5
GAMG:  Solving for p, Initial residual = 0.0905265, Final residual = 0.000815273, No Iterations 2
GAMG:  Solving for p, Initial residual = 0.000849859, Final residual = 6.12828e-06, No Iterations 4
GAMG:  Solving for p, Initial residual = 6.15296e-06, Final residual = 6.63789e-07, No Iterations 2
time step continuity errors : sum local = 1.95596e-09, global = -1.10753e-09, cumulative = -6.53156e-08
smoothSolver:  Solving for k.air, Initial residual = 0.0112798, Final residual = 1.69447e-07, No Iterations 5
bounding k.air, min: -0.0718496 max: 3.35208 average: 0.150729
ExecutionTime = 89.65 s  ClockTime = 90 s

Courant Number mean: 0.531686 max: 0.88858
deltaT = 0.00518161
Time = 4.990509790243196

Evolving kinematicCloud

Solving3-D cloud kinematicCloud

Cloud: kinematicCloud injector: model1
    Added 285 new parcels

Cloud: kinematicCloud
    Current number of parcels       = 22107
    Current mass in system          = 0.250024
    Linear momentum                 = (3.74431 0.013415 -0.00299598)
   |Linear momentum|                = 3.74434
    Linear kinetic energy           = 32.6683
    Average particle per parcel     = 1
    Injector model1:
      - parcels added               = 275180
      - mass introduced             = 3.11221
    Parcel fate: system (number, mass)
      - escape                      = 249288, 2.81938
    Parcel fate: patch inlet (number, mass)
      - escape                      = 0, 0
      - stick                       = 0, 0
    Parcel fate: patch outlet (number, mass)
      - escape                      = 242362, 2.74103
      - stick                       = 0, 0
    Parcel fate: patch upperAtm (number, mass)
      - escape                      = 6926, 0.0783312
      - stick                       = 0, 0
    Parcel fate: patch ground (number, mass)
      - escape                      = 0, 0
      - stick                       = 0, 0
    Parcel fate: patch frontAtm (number, mass)
      - escape                      = 1921, 0.0217261
      - stick                       = 0, 0
    Parcel fate: patch backAtm (number, mass)
      - escape                      = 1864, 0.0210813
      - stick                       = 0, 0
    Rotational kinetic energy       = 0

PIMPLE: iteration 1
smoothSolver:  Solving for U.airx, Initial residual = 0.00846199, Final residual = 1.72459e-07, No Iterations 6
smoothSolver:  Solving for U.airy, Initial residual = 0.143712, Final residual = 4.88937e-07, No Iterations 7
smoothSolver:  Solving for U.airz, Initial residual = 0.140842, Final residual = 4.71402e-07, No Iterations 7
GAMG:  Solving for p, Initial residual = 0.629599, Final residual = 0.00304549, No Iterations 3
GAMG:  Solving for p, Initial residual = 0.00298796, Final residual = 2.72455e-05, No Iterations 4
GAMG:  Solving for p, Initial residual = 2.66833e-05, Final residual = 4.56102e-07, No Iterations 4
time step continuity errors : sum local = 1.24135e-09, global = -9.94665e-10, cumulative = -6.63103e-08
PIMPLE: iteration 2
smoothSolver:  Solving for U.airx, Initial residual = 0.000335581, Final residual = 7.19754e-07, No Iterations 3
smoothSolver:  Solving for U.airy, Initial residual = 0.0153131, Final residual = 5.14897e-07, No Iterations 5
smoothSolver:  Solving for U.airz, Initial residual = 0.0105721, Final residual = 2.61004e-07, No Iterations 5
GAMG:  Solving for p, Initial residual = 0.0967938, Final residual = 0.000294251, No Iterations 3
GAMG:  Solving for p, Initial residual = 0.000306994, Final residual = 2.3688e-06, No Iterations 4
GAMG:  Solving for p, Initial residual = 2.37135e-06, Final residual = 7.55091e-07, No Iterations 1
time step continuity errors : sum local = 1.90583e-09, global = 6.60765e-10, cumulative = -6.56495e-08
smoothSolver:  Solving for k.air, Initial residual = 0.0107075, Final residual = 8.21058e-07, No Iterations 4
bounding k.air, min: -0.0652254 max: 3.34524 average: 0.150748
ExecutionTime = 89.74 s  ClockTime = 90 s

Courant Number mean: 0.478746 max: 0.719227
deltaT = 0.00575796
Time = 4.996267752288801

Evolving kinematicCloud

Solving3-D cloud kinematicCloud

Cloud: kinematicCloud injector: model1
    Added 317 new parcels

Cloud: kinematicCloud
    Current number of parcels       = 22126
    Current mass in system          = 0.250239
    Linear momentum                 = (3.74794 0.0134074 -0.00287139)
   |Linear momentum|                = 3.74796
    Linear kinetic energy           = 32.7043
    Average particle per parcel     = 1
    Injector model1:
      - parcels added               = 275497
      - mass introduced             = 3.1158
    Parcel fate: system (number, mass)
      - escape                      = 249586, 2.82275
    Parcel fate: patch inlet (number, mass)
      - escape                      = 0, 0
      - stick                       = 0, 0
    Parcel fate: patch outlet (number, mass)
      - escape                      = 242656, 2.74435
      - stick                       = 0, 0
    Parcel fate: patch upperAtm (number, mass)
      - escape                      = 6930, 0.0783765
      - stick                       = 0, 0
    Parcel fate: patch ground (number, mass)
      - escape                      = 0, 0
      - stick                       = 0, 0
    Parcel fate: patch frontAtm (number, mass)
      - escape                      = 1921, 0.0217261
      - stick                       = 0, 0
    Parcel fate: patch backAtm (number, mass)
      - escape                      = 1864, 0.0210813
      - stick                       = 0, 0
    Rotational kinetic energy       = 0

PIMPLE: iteration 1
smoothSolver:  Solving for U.airx, Initial residual = 0.00961391, Final residual = 3.0439e-07, No Iterations 6
smoothSolver:  Solving for U.airy, Initial residual = 0.16615, Final residual = 9.30007e-07, No Iterations 7
smoothSolver:  Solving for U.airz, Initial residual = 0.162493, Final residual = 8.80996e-07, No Iterations 7
GAMG:  Solving for p, Initial residual = 0.667962, Final residual = 0.00308861, No Iterations 3
GAMG:  Solving for p, Initial residual = 0.00305935, Final residual = 1.18953e-05, No Iterations 5
GAMG:  Solving for p, Initial residual = 1.15761e-05, Final residual = 7.6728e-07, No Iterations 3
time step continuity errors : sum local = 2.37816e-09, global = 2.25059e-09, cumulative = -6.33989e-08
PIMPLE: iteration 2
smoothSolver:  Solving for U.airx, Initial residual = 0.000340749, Final residual = 9.0091e-07, No Iterations 3
smoothSolver:  Solving for U.airy, Initial residual = 0.0168354, Final residual = 8.49242e-07, No Iterations 5
smoothSolver:  Solving for U.airz, Initial residual = 0.0118036, Final residual = 4.19707e-07, No Iterations 5
GAMG:  Solving for p, Initial residual = 0.110128, Final residual = 0.00033257, No Iterations 3
GAMG:  Solving for p, Initial residual = 0.000352074, Final residual = 3.50682e-06, No Iterations 4
GAMG:  Solving for p, Initial residual = 3.5163e-06, Final residual = 4.77856e-07, No Iterations 2
time step continuity errors : sum local = 1.34096e-09, global = -1.06249e-09, cumulative = -6.44614e-08
smoothSolver:  Solving for k.air, Initial residual = 0.0123916, Final residual = 1.4694e-07, No Iterations 5
bounding k.air, min: -0.0947025 max: 3.35166 average: 0.150698
ExecutionTime = 89.83 s  ClockTime = 90 s

Courant Number mean: 0.531907 max: 0.749509
deltaT = 0.00614585
Time = 5.002413601683219

Evolving kinematicCloud

Solving3-D cloud kinematicCloud

Cloud: kinematicCloud injector: model1
    Added 339 new parcels

Cloud: kinematicCloud
    Current number of parcels       = 22155
    Current mass in system          = 0.250567
    Linear momentum                 = (3.752 0.0135582 -0.00288824)
   |Linear momentum|                = 3.75203
    Linear kinetic energy           = 32.7353
    Average particle per parcel     = 1
    Injector model1:
      - parcels added               = 275836
      - mass introduced             = 3.11963
    Parcel fate: system (number, mass)
      - escape                      = 249887, 2.82616
    Parcel fate: patch inlet (number, mass)
      - escape                      = 0, 0
      - stick                       = 0, 0
    Parcel fate: patch outlet (number, mass)
      - escape                      = 242951, 2.74769
      - stick                       = 0, 0
    Parcel fate: patch upperAtm (number, mass)
      - escape                      = 6936, 0.0784443
      - stick                       = 0, 0
    Parcel fate: patch ground (number, mass)
      - escape                      = 0, 0
      - stick                       = 0, 0
    Parcel fate: patch frontAtm (number, mass)
      - escape                      = 1926, 0.0217827
      - stick                       = 0, 0
    Parcel fate: patch backAtm (number, mass)
      - escape                      = 1868, 0.0211265
      - stick                       = 0, 0
    Rotational kinetic energy       = 0

PIMPLE: iteration 1
smoothSolver:  Solving for U.airx, Initial residual = 0.0101422, Final residual = 5.23255e-07, No Iterations 6
smoothSolver:  Solving for U.airy, Initial residual = 0.176198, Final residual = 3.43374e-07, No Iterations 8
smoothSolver:  Solving for U.airz, Initial residual = 0.170322, Final residual = 3.16016e-07, No Iterations 8
GAMG:  Solving for p, Initial residual = 0.645676, Final residual = 0.00374244, No Iterations 3
GAMG:  Solving for p, Initial residual = 0.00395637, Final residual = 2.8109e-05, No Iterations 4
GAMG:  Solving for p, Initial residual = 2.81224e-05, Final residual = 8.46083e-07, No Iterations 3
time step continuity errors : sum local = 2.67528e-09, global = -1.21871e-09, cumulative = -6.56801e-08
PIMPLE: iteration 2
smoothSolver:  Solving for U.airx, Initial residual = 0.000450909, Final residual = 2.71684e-07, No Iterations 4
smoothSolver:  Solving for U.airy, Initial residual = 0.0207888, Final residual = 3.47365e-07, No Iterations 6
smoothSolver:  Solving for U.airz, Initial residual = 0.0142684, Final residual = 9.2179e-07, No Iterations 5
GAMG:  Solving for p, Initial residual = 0.128722, Final residual = 0.000494258, No Iterations 3
GAMG:  Solving for p, Initial residual = 0.000517632, Final residual = 3.54685e-06, No Iterations 4
GAMG:  Solving for p, Initial residual = 3.54672e-06, Final residual = 3.01611e-07, No Iterations 2
time step continuity errors : sum local = 8.71864e-10, global = 1.38041e-10, cumulative = -6.55421e-08
smoothSolver:  Solving for k.air, Initial residual = 0.0133202, Final residual = 2.27521e-07, No Iterations 5
bounding k.air, min: -0.109365 max: 3.35724 average: 0.150725
ExecutionTime = 90.06 s  ClockTime = 90 s

End

Finalising parallel run
