/*---------------------------------------------------------------------------*\
| =========                 |                                                 |
| \\      /  F ield         | OpenFOAM: The Open Source CFD Toolbox           |
|  \\    /   O peration     | Version:  2206                                  |
|   \\  /    A nd           | Website:  www.openfoam.com                      |
|    \\/     M anipulation  |                                                 |
\*---------------------------------------------------------------------------*/
Build  : _76d719d1-20220624 OPENFOAM=2206 version=v2206
Arch   : "LSB;label=64;scalar=64"
Exec   : pimpleFoam -parallel
Date   : Sep 20 2023
Time   : 14:45:53
Host   : DESKTOP-BTFG136
PID    : 3058
I/O    : uncollated
Case   : /home/noreff/works/OpenFOAM-user/v2206/Projects/validatioin_CHAD/scalar_noDiff
nProcs : 8
Hosts  :
(
    (DESKTOP-BTFG136 8)
)
Pstream initialized with:
    floatTransfer      : 0
    nProcsSimpleSum    : 0
    commsType          : nonBlocking
    polling iterations : 0
trapFpe: Floating point exception trapping enabled (FOAM_SIGFPE).
fileModificationChecking : Monitoring run-time modified files using timeStampMaster (fileModificationSkew 5, maxFileModificationPolls 20)
allowSystemOperations : Allowing user-supplied system call operations

// * * * * * * * * * * * * * * * * * * * * * * * * * * * * * * * * * * * * * //
Create time

--> FOAM Warning : 
    From void Foam::Time::setControls()
    in file db/Time/Time.C at line 335
    Reading "processor0/0/uniform/time" at line 19 to 27
    Time read from time dictionary 45 differs from actual time 0.
    This may cause unexpected database behaviour. If you are not interested
    in preserving time state delete the time dictionary.
Create mesh for time = 0


PIMPLE: no residual control data found. Calculations will employ 2 corrector loops

Reading field p

Reading field U

Reading/calculating face flux field phi

Selecting incompressible transport model Newtonian
Selecting turbulence model type LES
Selecting LES turbulence model Smagorinsky
Selecting LES delta type cubeRootVol
--> FOAM Warning : 
    From void Foam::LESModels::cubeRootVolDelta::calcDelta()
    in file LES/LESdeltas/cubeRootVolDelta/cubeRootVolDelta.C at line 58
    Case is 2D, LES is not strictly applicable

LES
{
    LESModel        Smagorinsky;
    turbulence      on;
    printCoeffs     on;
    delta           cubeRootVol;
    kEqnCoeffs
    {
        filter          simple;
    }
    cubeRootVolCoeffs
    {
        deltaCoeff      1;
    }
    smoothCoeffs
    {
        delta           cubeRootVol;
        cubeRootVolCoeffs
        {
            deltaCoeff      1;
        }
        maxDeltaRatio   1.1;
    }
    Ck              0.094;
}

No MRF models present

No finite volume options present
Courant Number mean: 0.109426 max: 0.398672
Courant Number mean: 0.109426 max: 0.398672

Starting time loop

--> FOAM IOWarning :
    Found [v1612] 'functionObjectLibs' entry instead of 'libs' in dictionary "system/controlDict.functions.scalar1"

    This keyword is 66 months old.

Courant Number mean: 0.109426 max: 0.398672
deltaT = 0.00166667
Time = 0.00166667

PIMPLE: iteration 1
smoothSolver:  Solving for Ux, Initial residual = 6.62223e-05, Final residual = 2.77364e-07, No Iterations 1
smoothSolver:  Solving for Uy, Initial residual = 6.56398e-05, Final residual = 2.79312e-07, No Iterations 1
DICPCG:  Solving for p, Initial residual = 0.0104145, Final residual = 9.43967e-05, No Iterations 16
time step continuity errors : sum local = 1.47101e-09, global = -1.03004e-20, cumulative = 4.18925e-16
DICPCG:  Solving for p, Initial residual = 0.000442244, Final residual = 9.3117e-07, No Iterations 323
time step continuity errors : sum local = 1.44948e-11, global = -7.0736e-22, cumulative = 4.18924e-16
PIMPLE: iteration 2
smoothSolver:  Solving for Ux, Initial residual = 2.98271e-07, Final residual = 2.98271e-07, No Iterations 0
smoothSolver:  Solving for Uy, Initial residual = 2.86905e-07, Final residual = 2.86905e-07, No Iterations 0
DICPCG:  Solving for p, Initial residual = 0.000968194, Final residual = 9.43936e-06, No Iterations 45
time step continuity errors : sum local = 1.4932e-10, global = 2.71888e-20, cumulative = 4.18951e-16
DICPCG:  Solving for p, Initial residual = 8.19869e-05, Final residual = 9.78248e-07, No Iterations 108
time step continuity errors : sum local = 1.70338e-11, global = 1.02829e-20, cumulative = 4.18961e-16
ExecutionTime = 0.14 s  ClockTime = 0 s

scalarTransport execute: s
DILUPBiCGStab:  Solving for s, Initial residual = 0.00145939, Final residual = 5.20295e-09, No Iterations 1
DILUPBiCGStab:  Solving for s, Initial residual = 8.41981e-05, Final residual = 3.59508e-12, No Iterations 1

Courant Number mean: 0.103408 max: 0.376743
deltaT = 0.00166667
Time = 0.00333333

PIMPLE: iteration 1
smoothSolver:  Solving for Ux, Initial residual = 6.63212e-05, Final residual = 2.78199e-07, No Iterations 1
smoothSolver:  Solving for Uy, Initial residual = 6.5724e-05, Final residual = 2.79897e-07, No Iterations 1
DICPCG:  Solving for p, Initial residual = 0.00863411, Final residual = 7.77399e-05, No Iterations 20
time step continuity errors : sum local = 1.20991e-09, global = 5.41849e-20, cumulative = 4.19016e-16
DICPCG:  Solving for p, Initial residual = 0.000384998, Final residual = 9.59769e-07, No Iterations 278
time step continuity errors : sum local = 1.49674e-11, global = 3.1529e-20, cumulative = 4.19047e-16
PIMPLE: iteration 2
smoothSolver:  Solving for Ux, Initial residual = 2.37015e-07, Final residual = 2.37015e-07, No Iterations 0
smoothSolver:  Solving for Uy, Initial residual = 2.25824e-07, Final residual = 2.25824e-07, No Iterations 0
DICPCG:  Solving for p, Initial residual = 0.000212106, Final residual = 2.09293e-06, No Iterations 123
time step continuity errors : sum local = 3.45401e-11, global = 1.91202e-21, cumulative = 4.19049e-16
DICPCG:  Solving for p, Initial residual = 4.98161e-06, Final residual = 9.52047e-07, No Iterations 4
time step continuity errors : sum local = 1.68518e-11, global = 1.54131e-21, cumulative = 4.19051e-16
ExecutionTime = 0.21 s  ClockTime = 0 s

scalarTransport execute: s
DILUPBiCGStab:  Solving for s, Initial residual = 0.00146232, Final residual = 1.94577e-09, No Iterations 1
DILUPBiCGStab:  Solving for s, Initial residual = 2.65119e-09, Final residual = 1.66318e-12, No Iterations 1

Courant Number mean: 0.103408 max: 0.376741
deltaT = 0.00166667
Time = 0.005

PIMPLE: iteration 1
smoothSolver:  Solving for Ux, Initial residual = 6.63108e-05, Final residual = 2.78007e-07, No Iterations 1
smoothSolver:  Solving for Uy, Initial residual = 6.57088e-05, Final residual = 2.79775e-07, No Iterations 1
DICPCG:  Solving for p, Initial residual = 0.000506139, Final residual = 4.94258e-06, No Iterations 53
time step continuity errors : sum local = 8.18448e-11, global = 4.20208e-20, cumulative = 4.19093e-16
DICPCG:  Solving for p, Initial residual = 7.13658e-05, Final residual = 9.46113e-07, No Iterations 254
time step continuity errors : sum local = 1.47123e-11, global = 6.7574e-21, cumulative = 4.19099e-16
PIMPLE: iteration 2
smoothSolver:  Solving for Ux, Initial residual = 2.36925e-07, Final residual = 2.36925e-07, No Iterations 0
smoothSolver:  Solving for Uy, Initial residual = 2.25709e-07, Final residual = 2.25709e-07, No Iterations 0
DICPCG:  Solving for p, Initial residual = 0.000203063, Final residual = 2.02665e-06, No Iterations 108
time step continuity errors : sum local = 3.35898e-11, global = 2.01558e-20, cumulative = 4.1912e-16
DICPCG:  Solving for p, Initial residual = 3.21881e-06, Final residual = 9.38929e-07, No Iterations 4
time step continuity errors : sum local = 1.67363e-11, global = 2.36575e-20, cumulative = 4.19143e-16
ExecutionTime = 0.28 s  ClockTime = 0 s

scalarTransport execute: s
DILUPBiCGStab:  Solving for s, Initial residual = 0.0014634, Final residual = 1.95209e-09, No Iterations 1
DILUPBiCGStab:  Solving for s, Initial residual = 2.89648e-09, Final residual = 1.67224e-12, No Iterations 1

Courant Number mean: 0.103409 max: 0.37674
deltaT = 0.00166667
Time = 0.00666667

PIMPLE: iteration 1
smoothSolver:  Solving for Ux, Initial residual = 6.6302e-05, Final residual = 2.7789e-07, No Iterations 1
smoothSolver:  Solving for Uy, Initial residual = 6.5702e-05, Final residual = 2.79707e-07, No Iterations 1
DICPCG:  Solving for p, Initial residual = 0.000453543, Final residual = 4.47045e-06, No Iterations 58
time step continuity errors : sum local = 7.4589e-11, global = 1.0153e-20, cumulative = 4.19153e-16
DICPCG:  Solving for p, Initial residual = 6.87967e-05, Final residual = 9.89927e-07, No Iterations 251
time step continuity errors : sum local = 1.54072e-11, global = 3.35485e-20, cumulative = 4.19187e-16
PIMPLE: iteration 2
smoothSolver:  Solving for Ux, Initial residual = 2.36893e-07, Final residual = 2.36893e-07, No Iterations 0
smoothSolver:  Solving for Uy, Initial residual = 2.25702e-07, Final residual = 2.25702e-07, No Iterations 0
DICPCG:  Solving for p, Initial residual = 0.000202727, Final residual = 1.99202e-06, No Iterations 117
time step continuity errors : sum local = 3.30033e-11, global = 2.47723e-20, cumulative = 4.19212e-16
DICPCG:  Solving for p, Initial residual = 3.09547e-06, Final residual = 9.59419e-07, No Iterations 4
time step continuity errors : sum local = 1.70094e-11, global = -2.81628e-21, cumulative = 4.19209e-16
ExecutionTime = 0.35 s  ClockTime = 0 s

scalarTransport execute: s
DILUPBiCGStab:  Solving for s, Initial residual = 0.0014639, Final residual = 1.95272e-09, No Iterations 1
DILUPBiCGStab:  Solving for s, Initial residual = 1.71367e-05, Final residual = 1.7461e-12, No Iterations 1

Courant Number mean: 0.10341 max: 0.376738
deltaT = 0.00166667
Time = 0.00833333

PIMPLE: iteration 1
smoothSolver:  Solving for Ux, Initial residual = 6.62977e-05, Final residual = 2.7781e-07, No Iterations 1
smoothSolver:  Solving for Uy, Initial residual = 6.56989e-05, Final residual = 2.79679e-07, No Iterations 1
DICPCG:  Solving for p, Initial residual = 0.000420465, Final residual = 4.09798e-06, No Iterations 59
time step continuity errors : sum local = 6.85962e-11, global = 3.46555e-20, cumulative = 4.19244e-16
DICPCG:  Solving for p, Initial residual = 6.68351e-05, Final residual = 9.55572e-07, No Iterations 253
time step continuity errors : sum local = 1.48677e-11, global = -3.12532e-21, cumulative = 4.1924e-16
PIMPLE: iteration 2
smoothSolver:  Solving for Ux, Initial residual = 2.36877e-07, Final residual = 2.36877e-07, No Iterations 0
smoothSolver:  Solving for Uy, Initial residual = 2.25729e-07, Final residual = 2.25729e-07, No Iterations 0
DICPCG:  Solving for p, Initial residual = 0.000202529, Final residual = 2.01508e-06, No Iterations 117
time step continuity errors : sum local = 3.33698e-11, global = 2.40216e-20, cumulative = 4.19264e-16
DICPCG:  Solving for p, Initial residual = 3.06135e-06, Final residual = 9.93141e-07, No Iterations 4
time step continuity errors : sum local = 1.7544e-11, global = 1.85314e-20, cumulative = 4.19283e-16
ExecutionTime = 0.43 s  ClockTime = 0 s

scalarTransport execute: s
DILUPBiCGStab:  Solving for s, Initial residual = 0.00146432, Final residual = 1.94851e-09, No Iterations 1
DILUPBiCGStab:  Solving for s, Initial residual = 2.52655e-05, Final residual = 1.87168e-12, No Iterations 1

Courant Number mean: 0.10341 max: 0.376736
deltaT = 0.00166667
Time = 0.01

PIMPLE: iteration 1
smoothSolver:  Solving for Ux, Initial residual = 6.62967e-05, Final residual = 2.77754e-07, No Iterations 1
smoothSolver:  Solving for Uy, Initial residual = 6.56982e-05, Final residual = 2.79668e-07, No Iterations 1
DICPCG:  Solving for p, Initial residual = 0.000388131, Final residual = 3.8009e-06, No Iterations 62
time step continuity errors : sum local = 6.40034e-11, global = 1.48175e-20, cumulative = 4.19298e-16
DICPCG:  Solving for p, Initial residual = 6.53915e-05, Final residual = 9.88594e-07, No Iterations 251
time step continuity errors : sum local = 1.53831e-11, global = -2.13486e-20, cumulative = 4.19276e-16
PIMPLE: iteration 2
smoothSolver:  Solving for Ux, Initial residual = 2.36864e-07, Final residual = 2.36864e-07, No Iterations 0
smoothSolver:  Solving for Uy, Initial residual = 2.25777e-07, Final residual = 2.25777e-07, No Iterations 0
DICPCG:  Solving for p, Initial residual = 0.000202505, Final residual = 2.01584e-06, No Iterations 117
time step continuity errors : sum local = 3.33903e-11, global = -2.08777e-20, cumulative = 4.19256e-16
DICPCG:  Solving for p, Initial residual = 3.03119e-06, Final residual = 9.64409e-07, No Iterations 5
time step continuity errors : sum local = 1.71013e-11, global = -1.59215e-20, cumulative = 4.1924e-16
ExecutionTime = 0.52 s  ClockTime = 0 s

scalarTransport execute: s
DILUPBiCGStab:  Solving for s, Initial residual = 0.00146472, Final residual = 1.94236e-09, No Iterations 1
DILUPBiCGStab:  Solving for s, Initial residual = 2.52612e-05, Final residual = 1.97256e-12, No Iterations 1

Courant Number mean: 0.103411 max: 0.376735
deltaT = 0.00166667
Time = 0.0116667

PIMPLE: iteration 1
smoothSolver:  Solving for Ux, Initial residual = 6.62978e-05, Final residual = 2.77719e-07, No Iterations 1
smoothSolver:  Solving for Uy, Initial residual = 6.56986e-05, Final residual = 2.79672e-07, No Iterations 1
DICPCG:  Solving for p, Initial residual = 0.000370855, Final residual = 3.66192e-06, No Iterations 65
time step continuity errors : sum local = 6.18379e-11, global = -1.34559e-20, cumulative = 4.19226e-16
DICPCG:  Solving for p, Initial residual = 6.47125e-05, Final residual = 9.60292e-07, No Iterations 252
time step continuity errors : sum local = 1.49351e-11, global = -8.91448e-21, cumulative = 4.19217e-16
PIMPLE: iteration 2
smoothSolver:  Solving for Ux, Initial residual = 2.36873e-07, Final residual = 2.36873e-07, No Iterations 0
smoothSolver:  Solving for Uy, Initial residual = 2.25837e-07, Final residual = 2.25837e-07, No Iterations 0
DICPCG:  Solving for p, Initial residual = 0.000202525, Final residual = 2.01826e-06, No Iterations 117
time step continuity errors : sum local = 3.34383e-11, global = 1.28224e-20, cumulative = 4.1923e-16
DICPCG:  Solving for p, Initial residual = 2.99965e-06, Final residual = 9.88773e-07, No Iterations 5
time step continuity errors : sum local = 1.74903e-11, global = 3.66037e-20, cumulative = 4.19267e-16
ExecutionTime = 0.6 s  ClockTime = 0 s

scalarTransport execute: s
DILUPBiCGStab:  Solving for s, Initial residual = 0.00146508, Final residual = 1.93185e-09, No Iterations 1
DILUPBiCGStab:  Solving for s, Initial residual = 6.90216e-05, Final residual = 1.022e-11, No Iterations 1

Courant Number mean: 0.103412 max: 0.376733
deltaT = 0.00166667
Time = 0.0133333

PIMPLE: iteration 1
smoothSolver:  Solving for Ux, Initial residual = 6.62998e-05, Final residual = 2.77683e-07, No Iterations 1
smoothSolver:  Solving for Uy, Initial residual = 6.57007e-05, Final residual = 2.79688e-07, No Iterations 1
DICPCG:  Solving for p, Initial residual = 0.000352159, Final residual = 3.37696e-06, No Iterations 89
time step continuity errors : sum local = 5.7175e-11, global = 2.0764e-20, cumulative = 4.19287e-16
DICPCG:  Solving for p, Initial residual = 6.37119e-05, Final residual = 9.49061e-07, No Iterations 253
time step continuity errors : sum local = 1.47641e-11, global = 2.25498e-20, cumulative = 4.1931e-16
PIMPLE: iteration 2
smoothSolver:  Solving for Ux, Initial residual = 2.36864e-07, Final residual = 2.36864e-07, No Iterations 0
smoothSolver:  Solving for Uy, Initial residual = 2.25913e-07, Final residual = 2.25913e-07, No Iterations 0
DICPCG:  Solving for p, Initial residual = 0.000202538, Final residual = 2.02292e-06, No Iterations 124
time step continuity errors : sum local = 3.34775e-11, global = 2.1234e-20, cumulative = 4.19331e-16
DICPCG:  Solving for p, Initial residual = 2.96296e-06, Final residual = 9.95781e-07, No Iterations 4
time step continuity errors : sum local = 1.75702e-11, global = -5.51505e-21, cumulative = 4.19326e-16
ExecutionTime = 0.67 s  ClockTime = 0 s

scalarTransport execute: s
DILUPBiCGStab:  Solving for s, Initial residual = 0.00146539, Final residual = 1.91839e-09, No Iterations 1
DILUPBiCGStab:  Solving for s, Initial residual = 8.94503e-05, Final residual = 1.89927e-11, No Iterations 1

Courant Number mean: 0.103412 max: 0.376732
deltaT = 0.00166667
Time = 0.015

PIMPLE: iteration 1
smoothSolver:  Solving for Ux, Initial residual = 6.63036e-05, Final residual = 2.77668e-07, No Iterations 1
smoothSolver:  Solving for Uy, Initial residual = 6.57035e-05, Final residual = 2.79713e-07, No Iterations 1
DICPCG:  Solving for p, Initial residual = 0.000339452, Final residual = 3.35021e-06, No Iterations 82
time step continuity errors : sum local = 5.67188e-11, global = 4.35007e-21, cumulative = 4.1933e-16
DICPCG:  Solving for p, Initial residual = 6.31331e-05, Final residual = 9.86589e-07, No Iterations 249
time step continuity errors : sum local = 1.53515e-11, global = 1.00424e-20, cumulative = 4.1934e-16
PIMPLE: iteration 2
smoothSolver:  Solving for Ux, Initial residual = 2.3686e-07, Final residual = 2.3686e-07, No Iterations 0
smoothSolver:  Solving for Uy, Initial residual = 2.25959e-07, Final residual = 2.25959e-07, No Iterations 0
DICPCG:  Solving for p, Initial residual = 0.000202436, Final residual = 1.98531e-06, No Iterations 124
time step continuity errors : sum local = 3.29047e-11, global = -2.1112e-20, cumulative = 4.19319e-16
DICPCG:  Solving for p, Initial residual = 2.91316e-06, Final residual = 9.89399e-07, No Iterations 4
time step continuity errors : sum local = 1.74821e-11, global = 3.59335e-20, cumulative = 4.19355e-16
ExecutionTime = 0.75 s  ClockTime = 1 s

scalarTransport execute: s
DILUPBiCGStab:  Solving for s, Initial residual = 0.00146569, Final residual = 1.91338e-09, No Iterations 1
DILUPBiCGStab:  Solving for s, Initial residual = 7.59006e-05, Final residual = 1.7398e-11, No Iterations 1

Courant Number mean: 0.103413 max: 0.37673
deltaT = 0.00166667
Time = 0.0166667

PIMPLE: iteration 1
smoothSolver:  Solving for Ux, Initial residual = 6.63096e-05, Final residual = 2.7766e-07, No Iterations 1
smoothSolver:  Solving for Uy, Initial residual = 6.57064e-05, Final residual = 2.79736e-07, No Iterations 1
DICPCG:  Solving for p, Initial residual = 0.00033105, Final residual = 3.30309e-06, No Iterations 89
time step continuity errors : sum local = 5.59184e-11, global = -1.68608e-20, cumulative = 4.19338e-16
DICPCG:  Solving for p, Initial residual = 6.2248e-05, Final residual = 9.761e-07, No Iterations 251
time step continuity errors : sum local = 1.5184e-11, global = 6.86925e-20, cumulative = 4.19407e-16
PIMPLE: iteration 2
smoothSolver:  Solving for Ux, Initial residual = 2.36865e-07, Final residual = 2.36865e-07, No Iterations 0
smoothSolver:  Solving for Uy, Initial residual = 2.25993e-07, Final residual = 2.25993e-07, No Iterations 0
DICPCG:  Solving for p, Initial residual = 0.000202349, Final residual = 2.01409e-06, No Iterations 125
time step continuity errors : sum local = 3.33602e-11, global = 3.92402e-20, cumulative = 4.19446e-16
DICPCG:  Solving for p, Initial residual = 2.92807e-06, Final residual = 9.59563e-07, No Iterations 5
time step continuity errors : sum local = 1.70208e-11, global = 6.53401e-21, cumulative = 4.19453e-16
ExecutionTime = 0.82 s  ClockTime = 1 s

scalarTransport execute: s
DILUPBiCGStab:  Solving for s, Initial residual = 0.001466, Final residual = 1.92109e-09, No Iterations 1
DILUPBiCGStab:  Solving for s, Initial residual = 6.3813e-05, Final residual = 1.48328e-11, No Iterations 1

Courant Number mean: 0.103414 max: 0.376728
deltaT = 0.00166667
Time = 0.0183333

PIMPLE: iteration 1
smoothSolver:  Solving for Ux, Initial residual = 6.63164e-05, Final residual = 2.77668e-07, No Iterations 1
smoothSolver:  Solving for Uy, Initial residual = 6.571e-05, Final residual = 2.79763e-07, No Iterations 1
DICPCG:  Solving for p, Initial residual = 0.000323195, Final residual = 3.21877e-06, No Iterations 92
time step continuity errors : sum local = 5.47885e-11, global = -7.59559e-21, cumulative = 4.19445e-16
DICPCG:  Solving for p, Initial residual = 6.21458e-05, Final residual = 9.46637e-07, No Iterations 253
time step continuity errors : sum local = 1.47274e-11, global = 1.30094e-20, cumulative = 4.19458e-16
PIMPLE: iteration 2
smoothSolver:  Solving for Ux, Initial residual = 2.36871e-07, Final residual = 2.36871e-07, No Iterations 0
smoothSolver:  Solving for Uy, Initial residual = 2.26032e-07, Final residual = 2.26032e-07, No Iterations 0
DICPCG:  Solving for p, Initial residual = 0.000202317, Final residual = 2.01463e-06, No Iterations 125
time step continuity errors : sum local = 3.33764e-11, global = 3.08468e-20, cumulative = 4.19489e-16
DICPCG:  Solving for p, Initial residual = 2.91223e-06, Final residual = 9.69828e-07, No Iterations 5
time step continuity errors : sum local = 1.71868e-11, global = 3.17248e-20, cumulative = 4.19521e-16
ExecutionTime = 0.9 s  ClockTime = 1 s

scalarTransport execute: s
DILUPBiCGStab:  Solving for s, Initial residual = 0.0014663, Final residual = 1.93562e-09, No Iterations 1
DILUPBiCGStab:  Solving for s, Initial residual = 5.65443e-05, Final residual = 1.20424e-11, No Iterations 1

Courant Number mean: 0.103414 max: 0.376727
deltaT = 0.00166667
Time = 0.02

PIMPLE: iteration 1
smoothSolver:  Solving for Ux, Initial residual = 6.63243e-05, Final residual = 2.77682e-07, No Iterations 1
smoothSolver:  Solving for Uy, Initial residual = 6.57135e-05, Final residual = 2.79789e-07, No Iterations 1
DICPCG:  Solving for p, Initial residual = 0.000315496, Final residual = 3.11221e-06, No Iterations 107
time step continuity errors : sum local = 5.28534e-11, global = 3.35753e-20, cumulative = 4.19554e-16
DICPCG:  Solving for p, Initial residual = 6.24013e-05, Final residual = 9.65975e-07, No Iterations 253
time step continuity errors : sum local = 1.50207e-11, global = -2.83225e-21, cumulative = 4.19551e-16
PIMPLE: iteration 2
smoothSolver:  Solving for Ux, Initial residual = 2.36879e-07, Final residual = 2.36879e-07, No Iterations 0
smoothSolver:  Solving for Uy, Initial residual = 2.26058e-07, Final residual = 2.26058e-07, No Iterations 0
DICPCG:  Solving for p, Initial residual = 0.000202315, Final residual = 2.01183e-06, No Iterations 125
time step continuity errors : sum local = 3.33462e-11, global = 3.23026e-21, cumulative = 4.19554e-16
DICPCG:  Solving for p, Initial residual = 2.90591e-06, Final residual = 9.75172e-07, No Iterations 5
time step continuity errors : sum local = 1.72821e-11, global = -1.11515e-20, cumulative = 4.19543e-16
ExecutionTime = 1 s  ClockTime = 1 s

scalarTransport execute: s
DILUPBiCGStab:  Solving for s, Initial residual = 0.00146657, Final residual = 1.94969e-09, No Iterations 1
DILUPBiCGStab:  Solving for s, Initial residual = 4.81291e-05, Final residual = 1.01858e-11, No Iterations 1

Courant Number mean: 0.103415 max: 0.376725
deltaT = 0.00166667
Time = 0.0216667

PIMPLE: iteration 1
smoothSolver:  Solving for Ux, Initial residual = 6.63313e-05, Final residual = 2.77697e-07, No Iterations 1
smoothSolver:  Solving for Uy, Initial residual = 6.57166e-05, Final residual = 2.79815e-07, No Iterations 1
DICPCG:  Solving for p, Initial residual = 0.000307625, Final residual = 3.00482e-06, No Iterations 107
time step continuity errors : sum local = 5.10894e-11, global = 3.19727e-20, cumulative = 4.19575e-16
DICPCG:  Solving for p, Initial residual = 6.26436e-05, Final residual = 9.84288e-07, No Iterations 253
time step continuity errors : sum local = 1.53073e-11, global = -2.63272e-20, cumulative = 4.19549e-16
PIMPLE: iteration 2
smoothSolver:  Solving for Ux, Initial residual = 2.36873e-07, Final residual = 2.36873e-07, No Iterations 0
smoothSolver:  Solving for Uy, Initial residual = 2.26089e-07, Final residual = 2.26089e-07, No Iterations 0
DICPCG:  Solving for p, Initial residual = 0.000202249, Final residual = 2.02211e-06, No Iterations 125
time step continuity errors : sum local = 3.35218e-11, global = -2.4156e-20, cumulative = 4.19525e-16
DICPCG:  Solving for p, Initial residual = 2.90146e-06, Final residual = 9.84174e-07, No Iterations 5
time step continuity errors : sum local = 1.74368e-11, global = 5.53147e-20, cumulative = 4.1958e-16
ExecutionTime = 1.08 s  ClockTime = 1 s

scalarTransport execute: s
DILUPBiCGStab:  Solving for s, Initial residual = 0.00146685, Final residual = 1.9597e-09, No Iterations 1
DILUPBiCGStab:  Solving for s, Initial residual = 4.6014e-05, Final residual = 8.4542e-12, No Iterations 1

Courant Number mean: 0.103416 max: 0.376724
deltaT = 0.00166667
Time = 0.0233333

PIMPLE: iteration 1
smoothSolver:  Solving for Ux, Initial residual = 6.63384e-05, Final residual = 2.77704e-07, No Iterations 1
smoothSolver:  Solving for Uy, Initial residual = 6.57202e-05, Final residual = 2.79836e-07, No Iterations 1
DICPCG:  Solving for p, Initial residual = 0.000300463, Final residual = 2.88248e-06, No Iterations 131
time step continuity errors : sum local = 4.90372e-11, global = -9.41002e-22, cumulative = 4.19579e-16
DICPCG:  Solving for p, Initial residual = 6.17337e-05, Final residual = 9.85293e-07, No Iterations 245
time step continuity errors : sum local = 1.53752e-11, global = -1.80563e-20, cumulative = 4.19561e-16
PIMPLE: iteration 2
smoothSolver:  Solving for Ux, Initial residual = 2.36859e-07, Final residual = 2.36859e-07, No Iterations 0
smoothSolver:  Solving for Uy, Initial residual = 2.26124e-07, Final residual = 2.26124e-07, No Iterations 0
DICPCG:  Solving for p, Initial residual = 0.000202134, Final residual = 1.96322e-06, No Iterations 127
time step continuity errors : sum local = 3.26047e-11, global = 3.13391e-20, cumulative = 4.19592e-16
DICPCG:  Solving for p, Initial residual = 2.8579e-06, Final residual = 9.63416e-07, No Iterations 5
time step continuity errors : sum local = 1.7112e-11, global = -2.16798e-20, cumulative = 4.19571e-16
ExecutionTime = 1.16 s  ClockTime = 1 s

scalarTransport execute: s
DILUPBiCGStab:  Solving for s, Initial residual = 0.00146712, Final residual = 1.96734e-09, No Iterations 1
DILUPBiCGStab:  Solving for s, Initial residual = 5.83993e-05, Final residual = 1.02697e-11, No Iterations 1

Courant Number mean: 0.103416 max: 0.376723
deltaT = 0.00166667
Time = 0.025

PIMPLE: iteration 1
smoothSolver:  Solving for Ux, Initial residual = 6.63455e-05, Final residual = 2.77721e-07, No Iterations 1
smoothSolver:  Solving for Uy, Initial residual = 6.57234e-05, Final residual = 2.79861e-07, No Iterations 1
DICPCG:  Solving for p, Initial residual = 0.000298666, Final residual = 2.94392e-06, No Iterations 107
time step continuity errors : sum local = 5.03757e-11, global = 3.02157e-20, cumulative = 4.19601e-16
DICPCG:  Solving for p, Initial residual = 6.18348e-05, Final residual = 9.84787e-07, No Iterations 253
time step continuity errors : sum local = 1.5315e-11, global = -1.27847e-20, cumulative = 4.19588e-16
PIMPLE: iteration 2
smoothSolver:  Solving for Ux, Initial residual = 2.36865e-07, Final residual = 2.36865e-07, No Iterations 0
smoothSolver:  Solving for Uy, Initial residual = 2.26138e-07, Final residual = 2.26138e-07, No Iterations 0
DICPCG:  Solving for p, Initial residual = 0.00020208, Final residual = 2.01673e-06, No Iterations 126
time step continuity errors : sum local = 3.3452e-11, global = 1.1749e-20, cumulative = 4.196e-16
DICPCG:  Solving for p, Initial residual = 2.87901e-06, Final residual = 9.91838e-07, No Iterations 5
time step continuity errors : sum local = 1.75683e-11, global = -8.62314e-21, cumulative = 4.19591e-16
ExecutionTime = 1.24 s  ClockTime = 1 s

scalarTransport execute: s
DILUPBiCGStab:  Solving for s, Initial residual = 0.00146736, Final residual = 1.97524e-09, No Iterations 1
DILUPBiCGStab:  Solving for s, Initial residual = 6.35494e-05, Final residual = 1.47441e-11, No Iterations 1

Courant Number mean: 0.103417 max: 0.376721
deltaT = 0.00166667
Time = 0.0266667

PIMPLE: iteration 1
smoothSolver:  Solving for Ux, Initial residual = 6.63531e-05, Final residual = 2.7774e-07, No Iterations 1
smoothSolver:  Solving for Uy, Initial residual = 6.5726e-05, Final residual = 2.79886e-07, No Iterations 1
DICPCG:  Solving for p, Initial residual = 0.000309049, Final residual = 3.08869e-06, No Iterations 129
time step continuity errors : sum local = 5.25415e-11, global = -5.24743e-21, cumulative = 4.19586e-16
DICPCG:  Solving for p, Initial residual = 6.20199e-05, Final residual = 9.72436e-07, No Iterations 249
time step continuity errors : sum local = 1.51544e-11, global = 5.38129e-20, cumulative = 4.1964e-16
PIMPLE: iteration 2
smoothSolver:  Solving for Ux, Initial residual = 2.36848e-07, Final residual = 2.36848e-07, No Iterations 0
smoothSolver:  Solving for Uy, Initial residual = 2.26179e-07, Final residual = 2.26179e-07, No Iterations 0
DICPCG:  Solving for p, Initial residual = 0.000202001, Final residual = 1.98069e-06, No Iterations 127
time step continuity errors : sum local = 3.28945e-11, global = 4.10287e-20, cumulative = 4.19681e-16
DICPCG:  Solving for p, Initial residual = 2.85566e-06, Final residual = 9.8433e-07, No Iterations 5
time step continuity errors : sum local = 1.74524e-11, global = -9.52175e-21, cumulative = 4.19671e-16
ExecutionTime = 1.32 s  ClockTime = 1 s

scalarTransport execute: s
DILUPBiCGStab:  Solving for s, Initial residual = 0.00146753, Final residual = 1.98275e-09, No Iterations 1
DILUPBiCGStab:  Solving for s, Initial residual = 5.44325e-05, Final residual = 1.39104e-11, No Iterations 1

Courant Number mean: 0.103418 max: 0.37672
deltaT = 0.00166667
Time = 0.0283333

PIMPLE: iteration 1
smoothSolver:  Solving for Ux, Initial residual = 6.63598e-05, Final residual = 2.77767e-07, No Iterations 1
smoothSolver:  Solving for Uy, Initial residual = 6.57294e-05, Final residual = 2.79912e-07, No Iterations 1
DICPCG:  Solving for p, Initial residual = 0.000302927, Final residual = 2.98008e-06, No Iterations 90
time step continuity errors : sum local = 5.08829e-11, global = 2.21823e-20, cumulative = 4.19694e-16
DICPCG:  Solving for p, Initial residual = 6.24283e-05, Final residual = 9.34948e-07, No Iterations 252
time step continuity errors : sum local = 1.45505e-11, global = -1.25299e-20, cumulative = 4.19681e-16
PIMPLE: iteration 2
smoothSolver:  Solving for Ux, Initial residual = 2.36845e-07, Final residual = 2.36845e-07, No Iterations 0
smoothSolver:  Solving for Uy, Initial residual = 2.26204e-07, Final residual = 2.26204e-07, No Iterations 0
DICPCG:  Solving for p, Initial residual = 0.000201988, Final residual = 1.98473e-06, No Iterations 127
time step continuity errors : sum local = 3.29846e-11, global = -1.83538e-20, cumulative = 4.19663e-16
DICPCG:  Solving for p, Initial residual = 2.85539e-06, Final residual = 9.93398e-07, No Iterations 5
time step continuity errors : sum local = 1.76199e-11, global = -1.10118e-20, cumulative = 4.19652e-16
ExecutionTime = 1.4 s  ClockTime = 1 s

scalarTransport execute: s
DILUPBiCGStab:  Solving for s, Initial residual = 0.00146769, Final residual = 1.99236e-09, No Iterations 1
DILUPBiCGStab:  Solving for s, Initial residual = 4.65977e-05, Final residual = 1.24055e-11, No Iterations 1

Courant Number mean: 0.103418 max: 0.376718
deltaT = 0.00166667
Time = 0.03

PIMPLE: iteration 1
smoothSolver:  Solving for Ux, Initial residual = 6.63661e-05, Final residual = 2.77794e-07, No Iterations 1
smoothSolver:  Solving for Uy, Initial residual = 6.57339e-05, Final residual = 2.79941e-07, No Iterations 1
DICPCG:  Solving for p, Initial residual = 0.000294422, Final residual = 2.90462e-06, No Iterations 131
time step continuity errors : sum local = 4.95046e-11, global = 6.42621e-21, cumulative = 4.19658e-16
DICPCG:  Solving for p, Initial residual = 6.2847e-05, Final residual = 9.80735e-07, No Iterations 241
time step continuity errors : sum local = 1.53196e-11, global = -9.62639e-21, cumulative = 4.19649e-16
PIMPLE: iteration 2
smoothSolver:  Solving for Ux, Initial residual = 2.36849e-07, Final residual = 2.36849e-07, No Iterations 0
smoothSolver:  Solving for Uy, Initial residual = 2.26245e-07, Final residual = 2.26245e-07, No Iterations 0
DICPCG:  Solving for p, Initial residual = 0.000202009, Final residual = 1.99684e-06, No Iterations 127
time step continuity errors : sum local = 3.31796e-11, global = 2.58909e-20, cumulative = 4.19674e-16
DICPCG:  Solving for p, Initial residual = 2.86666e-06, Final residual = 9.81614e-07, No Iterations 6
time step continuity errors : sum local = 1.74504e-11, global = -1.69745e-20, cumulative = 4.19657e-16
ExecutionTime = 1.49 s  ClockTime = 1 s

scalarTransport execute: s
DILUPBiCGStab:  Solving for s, Initial residual = 0.00146786, Final residual = 2.00238e-09, No Iterations 1
DILUPBiCGStab:  Solving for s, Initial residual = 4.16348e-05, Final residual = 1.09511e-11, No Iterations 1

Courant Number mean: 0.103419 max: 0.376717
deltaT = 0.00166667
Time = 0.0316667

PIMPLE: iteration 1
smoothSolver:  Solving for Ux, Initial residual = 6.63722e-05, Final residual = 2.77823e-07, No Iterations 1
smoothSolver:  Solving for Uy, Initial residual = 6.57376e-05, Final residual = 2.79969e-07, No Iterations 1
DICPCG:  Solving for p, Initial residual = 0.000308241, Final residual = 3.07386e-06, No Iterations 109
time step continuity errors : sum local = 5.25487e-11, global = -5.30668e-21, cumulative = 4.19652e-16
DICPCG:  Solving for p, Initial residual = 6.35166e-05, Final residual = 9.75041e-07, No Iterations 253
time step continuity errors : sum local = 1.51644e-11, global = -1.28008e-21, cumulative = 4.19651e-16
PIMPLE: iteration 2
smoothSolver:  Solving for Ux, Initial residual = 2.36861e-07, Final residual = 2.36861e-07, No Iterations 0
smoothSolver:  Solving for Uy, Initial residual = 2.26265e-07, Final residual = 2.26265e-07, No Iterations 0
DICPCG:  Solving for p, Initial residual = 0.000201963, Final residual = 1.99004e-06, No Iterations 127
time step continuity errors : sum local = 3.30795e-11, global = 2.16666e-20, cumulative = 4.19673e-16
DICPCG:  Solving for p, Initial residual = 2.85982e-06, Final residual = 9.8604e-07, No Iterations 6
time step continuity errors : sum local = 1.75243e-11, global = 5.55088e-20, cumulative = 4.19728e-16
ExecutionTime = 1.58 s  ClockTime = 1 s

scalarTransport execute: s
DILUPBiCGStab:  Solving for s, Initial residual = 0.00146804, Final residual = 2.01122e-09, No Iterations 1
DILUPBiCGStab:  Solving for s, Initial residual = 3.58858e-05, Final residual = 9.62228e-12, No Iterations 1

Courant Number mean: 0.10342 max: 0.376716
deltaT = 0.00166667
Time = 0.0333333

PIMPLE: iteration 1
smoothSolver:  Solving for Ux, Initial residual = 6.6378e-05, Final residual = 2.77848e-07, No Iterations 1
smoothSolver:  Solving for Uy, Initial residual = 6.57416e-05, Final residual = 2.79996e-07, No Iterations 1
DICPCG:  Solving for p, Initial residual = 0.000305169, Final residual = 3.02487e-06, No Iterations 131
time step continuity errors : sum local = 5.14613e-11, global = 4.68099e-21, cumulative = 4.19733e-16
DICPCG:  Solving for p, Initial residual = 6.34967e-05, Final residual = 9.81988e-07, No Iterations 246
time step continuity errors : sum local = 1.53263e-11, global = 4.38297e-21, cumulative = 4.19737e-16
PIMPLE: iteration 2
smoothSolver:  Solving for Ux, Initial residual = 2.36851e-07, Final residual = 2.36851e-07, No Iterations 0
smoothSolver:  Solving for Uy, Initial residual = 2.26313e-07, Final residual = 2.26313e-07, No Iterations 0
DICPCG:  Solving for p, Initial residual = 0.00020191, Final residual = 2.0139e-06, No Iterations 127
time step continuity errors : sum local = 3.34673e-11, global = 1.87816e-20, cumulative = 4.19756e-16
DICPCG:  Solving for p, Initial residual = 2.87656e-06, Final residual = 9.70366e-07, No Iterations 7
time step continuity errors : sum local = 1.72952e-11, global = -1.09671e-20, cumulative = 4.19745e-16
ExecutionTime = 1.66 s  ClockTime = 1 s

scalarTransport execute: s
DILUPBiCGStab:  Solving for s, Initial residual = 0.0014682, Final residual = 2.01894e-09, No Iterations 1
DILUPBiCGStab:  Solving for s, Initial residual = 3.86682e-05, Final residual = 8.54627e-12, No Iterations 1

Courant Number mean: 0.10342 max: 0.376714
deltaT = 0.00166667
Time = 0.035

PIMPLE: iteration 1
smoothSolver:  Solving for Ux, Initial residual = 6.63837e-05, Final residual = 2.77872e-07, No Iterations 1
smoothSolver:  Solving for Uy, Initial residual = 6.57457e-05, Final residual = 2.80021e-07, No Iterations 1
DICPCG:  Solving for p, Initial residual = 0.000309939, Final residual = 3.09817e-06, No Iterations 110
time step continuity errors : sum local = 5.28712e-11, global = 5.24335e-20, cumulative = 4.19797e-16
DICPCG:  Solving for p, Initial residual = 6.36405e-05, Final residual = 9.80118e-07, No Iterations 252
time step continuity errors : sum local = 1.52488e-11, global = -1.70706e-20, cumulative = 4.1978e-16
PIMPLE: iteration 2
smoothSolver:  Solving for Ux, Initial residual = 2.36864e-07, Final residual = 2.36864e-07, No Iterations 0
smoothSolver:  Solving for Uy, Initial residual = 2.26336e-07, Final residual = 2.26336e-07, No Iterations 0
DICPCG:  Solving for p, Initial residual = 0.000201884, Final residual = 2.00296e-06, No Iterations 127
time step continuity errors : sum local = 3.33083e-11, global = -2.42989e-20, cumulative = 4.19756e-16
DICPCG:  Solving for p, Initial residual = 2.86228e-06, Final residual = 9.73128e-07, No Iterations 7
time step continuity errors : sum local = 1.73487e-11, global = -2.27443e-20, cumulative = 4.19733e-16
ExecutionTime = 1.74 s  ClockTime = 2 s

scalarTransport execute: s
DILUPBiCGStab:  Solving for s, Initial residual = 0.00146837, Final residual = 2.02616e-09, No Iterations 1
DILUPBiCGStab:  Solving for s, Initial residual = 4.00629e-05, Final residual = 9.75089e-12, No Iterations 1

Courant Number mean: 0.103421 max: 0.376713
deltaT = 0.00166667
Time = 0.0366667

PIMPLE: iteration 1
smoothSolver:  Solving for Ux, Initial residual = 6.63895e-05, Final residual = 2.77891e-07, No Iterations 1
smoothSolver:  Solving for Uy, Initial residual = 6.57494e-05, Final residual = 2.80039e-07, No Iterations 1
DICPCG:  Solving for p, Initial residual = 0.000299218, Final residual = 2.98233e-06, No Iterations 131
time step continuity errors : sum local = 5.08868e-11, global = -1.50265e-20, cumulative = 4.19718e-16
DICPCG:  Solving for p, Initial residual = 6.29114e-05, Final residual = 9.70746e-07, No Iterations 248
time step continuity errors : sum local = 1.51432e-11, global = -4.75574e-20, cumulative = 4.19671e-16
PIMPLE: iteration 2
smoothSolver:  Solving for Ux, Initial residual = 2.36849e-07, Final residual = 2.36849e-07, No Iterations 0
smoothSolver:  Solving for Uy, Initial residual = 2.26387e-07, Final residual = 2.26387e-07, No Iterations 0
DICPCG:  Solving for p, Initial residual = 0.000201779, Final residual = 2.00508e-06, No Iterations 128
time step continuity errors : sum local = 3.335e-11, global = 1.62946e-22, cumulative = 4.19671e-16
DICPCG:  Solving for p, Initial residual = 2.84572e-06, Final residual = 9.85827e-07, No Iterations 6
time step continuity errors : sum local = 1.7551e-11, global = -3.00869e-20, cumulative = 4.19641e-16
ExecutionTime = 1.82 s  ClockTime = 2 s

scalarTransport execute: s
DILUPBiCGStab:  Solving for s, Initial residual = 0.00146856, Final residual = 2.035e-09, No Iterations 1
DILUPBiCGStab:  Solving for s, Initial residual = 4.34999e-05, Final residual = 1.2182e-11, No Iterations 1

Courant Number mean: 0.103422 max: 0.376712
deltaT = 0.00166667
Time = 0.0383333

PIMPLE: iteration 1
smoothSolver:  Solving for Ux, Initial residual = 6.63943e-05, Final residual = 2.7791e-07, No Iterations 1
smoothSolver:  Solving for Uy, Initial residual = 6.57532e-05, Final residual = 2.80053e-07, No Iterations 1
DICPCG:  Solving for p, Initial residual = 0.000288632, Final residual = 2.86457e-06, No Iterations 132
time step continuity errors : sum local = 4.89694e-11, global = 1.20992e-20, cumulative = 4.19653e-16
DICPCG:  Solving for p, Initial residual = 6.23525e-05, Final residual = 9.7193e-07, No Iterations 247
time step continuity errors : sum local = 1.51678e-11, global = 1.04986e-20, cumulative = 4.19663e-16
PIMPLE: iteration 2
smoothSolver:  Solving for Ux, Initial residual = 2.36847e-07, Final residual = 2.36847e-07, No Iterations 0
smoothSolver:  Solving for Uy, Initial residual = 2.26422e-07, Final residual = 2.26422e-07, No Iterations 0
DICPCG:  Solving for p, Initial residual = 0.000201755, Final residual = 2.01021e-06, No Iterations 128
time step continuity errors : sum local = 3.34453e-11, global = 1.26812e-20, cumulative = 4.19676e-16
DICPCG:  Solving for p, Initial residual = 2.8472e-06, Final residual = 9.90903e-07, No Iterations 6
time step continuity errors : sum local = 1.76439e-11, global = 2.94724e-20, cumulative = 4.19705e-16
ExecutionTime = 1.9 s  ClockTime = 2 s

scalarTransport execute: s
DILUPBiCGStab:  Solving for s, Initial residual = 0.00146872, Final residual = 2.0443e-09, No Iterations 1
DILUPBiCGStab:  Solving for s, Initial residual = 4.02572e-05, Final residual = 1.19282e-11, No Iterations 1

Courant Number mean: 0.103422 max: 0.376711
deltaT = 0.00166667
Time = 0.04

PIMPLE: iteration 1
smoothSolver:  Solving for Ux, Initial residual = 6.63992e-05, Final residual = 2.77934e-07, No Iterations 1
smoothSolver:  Solving for Uy, Initial residual = 6.57568e-05, Final residual = 2.80064e-07, No Iterations 1
DICPCG:  Solving for p, Initial residual = 0.000299911, Final residual = 2.944e-06, No Iterations 132
time step continuity errors : sum local = 5.03009e-11, global = -1.13014e-20, cumulative = 4.19694e-16
DICPCG:  Solving for p, Initial residual = 6.30371e-05, Final residual = 9.68147e-07, No Iterations 225
time step continuity errors : sum local = 1.50783e-11, global = 4.86766e-20, cumulative = 4.19743e-16
PIMPLE: iteration 2
smoothSolver:  Solving for Ux, Initial residual = 2.3686e-07, Final residual = 2.3686e-07, No Iterations 0
smoothSolver:  Solving for Uy, Initial residual = 2.26459e-07, Final residual = 2.26459e-07, No Iterations 0
DICPCG:  Solving for p, Initial residual = 0.000201766, Final residual = 2.00685e-06, No Iterations 128
time step continuity errors : sum local = 3.3404e-11, global = 2.71273e-20, cumulative = 4.1977e-16
DICPCG:  Solving for p, Initial residual = 2.84725e-06, Final residual = 9.87213e-07, No Iterations 6
time step continuity errors : sum local = 1.7597e-11, global = -3.45155e-20, cumulative = 4.19735e-16
ExecutionTime = 2.01 s  ClockTime = 2 s

scalarTransport execute: s
DILUPBiCGStab:  Solving for s, Initial residual = 0.00146884, Final residual = 2.05393e-09, No Iterations 1
DILUPBiCGStab:  Solving for s, Initial residual = 3.73941e-05, Final residual = 1.10168e-11, No Iterations 1

Courant Number mean: 0.103423 max: 0.376709
deltaT = 0.00166667
Time = 0.0416667

PIMPLE: iteration 1
smoothSolver:  Solving for Ux, Initial residual = 6.64028e-05, Final residual = 2.77959e-07, No Iterations 1
smoothSolver:  Solving for Uy, Initial residual = 6.57612e-05, Final residual = 2.80083e-07, No Iterations 1
DICPCG:  Solving for p, Initial residual = 0.000289131, Final residual = 2.88672e-06, No Iterations 137
time step continuity errors : sum local = 4.9537e-11, global = 2.14061e-20, cumulative = 4.19757e-16
DICPCG:  Solving for p, Initial residual = 6.29677e-05, Final residual = 9.71233e-07, No Iterations 233
time step continuity errors : sum local = 1.51801e-11, global = 5.00542e-21, cumulative = 4.19762e-16
PIMPLE: iteration 2
smoothSolver:  Solving for Ux, Initial residual = 2.36845e-07, Final residual = 2.36845e-07, No Iterations 0
smoothSolver:  Solving for Uy, Initial residual = 2.26501e-07, Final residual = 2.26501e-07, No Iterations 0
DICPCG:  Solving for p, Initial residual = 0.000201789, Final residual = 2.00028e-06, No Iterations 128
time step continuity errors : sum local = 3.33103e-11, global = 1.83414e-20, cumulative = 4.1978e-16
DICPCG:  Solving for p, Initial residual = 2.8388e-06, Final residual = 9.88731e-07, No Iterations 6
time step continuity errors : sum local = 1.76258e-11, global = -1.0428e-20, cumulative = 4.1977e-16
ExecutionTime = 2.09 s  ClockTime = 2 s

scalarTransport execute: s
DILUPBiCGStab:  Solving for s, Initial residual = 0.00146896, Final residual = 2.06403e-09, No Iterations 1
DILUPBiCGStab:  Solving for s, Initial residual = 3.11574e-05, Final residual = 9.94775e-12, No Iterations 1

Courant Number mean: 0.103424 max: 0.376708
deltaT = 0.00166667
Time = 0.0433333

PIMPLE: iteration 1
smoothSolver:  Solving for Ux, Initial residual = 6.64077e-05, Final residual = 2.77987e-07, No Iterations 1
smoothSolver:  Solving for Uy, Initial residual = 6.57649e-05, Final residual = 2.80091e-07, No Iterations 1
DICPCG:  Solving for p, Initial residual = 0.000296037, Final residual = 2.88521e-06, No Iterations 130
time step continuity errors : sum local = 4.91773e-11, global = -3.64719e-20, cumulative = 4.19733e-16
DICPCG:  Solving for p, Initial residual = 6.33693e-05, Final residual = 9.97599e-07, No Iterations 246
time step continuity errors : sum local = 1.55815e-11, global = -4.46391e-20, cumulative = 4.19689e-16
PIMPLE: iteration 2
smoothSolver:  Solving for Ux, Initial residual = 2.36851e-07, Final residual = 2.36851e-07, No Iterations 0
smoothSolver:  Solving for Uy, Initial residual = 2.26537e-07, Final residual = 2.26537e-07, No Iterations 0
DICPCG:  Solving for p, Initial residual = 0.000201724, Final residual = 1.95669e-06, No Iterations 129
time step continuity errors : sum local = 3.2653e-11, global = -6.21569e-21, cumulative = 4.19682e-16
DICPCG:  Solving for p, Initial residual = 2.79412e-06, Final residual = 9.86398e-07, No Iterations 6
time step continuity errors : sum local = 1.76076e-11, global = 2.53284e-20, cumulative = 4.19708e-16
ExecutionTime = 2.17 s  ClockTime = 2 s

scalarTransport execute: s
DILUPBiCGStab:  Solving for s, Initial residual = 0.00146908, Final residual = 2.07475e-09, No Iterations 1
DILUPBiCGStab:  Solving for s, Initial residual = 3.09292e-05, Final residual = 9.44385e-12, No Iterations 1

Courant Number mean: 0.103424 max: 0.376707
deltaT = 0.00166667
Time = 0.045

PIMPLE: iteration 1
smoothSolver:  Solving for Ux, Initial residual = 6.64132e-05, Final residual = 2.78016e-07, No Iterations 1
smoothSolver:  Solving for Uy, Initial residual = 6.57677e-05, Final residual = 2.80094e-07, No Iterations 1
DICPCG:  Solving for p, Initial residual = 0.000296149, Final residual = 2.94831e-06, No Iterations 129
time step continuity errors : sum local = 5.02624e-11, global = -9.73133e-21, cumulative = 4.19698e-16
DICPCG:  Solving for p, Initial residual = 6.32202e-05, Final residual = 9.82719e-07, No Iterations 229
time step continuity errors : sum local = 1.53732e-11, global = -2.71744e-21, cumulative = 4.19695e-16
PIMPLE: iteration 2
smoothSolver:  Solving for Ux, Initial residual = 2.36843e-07, Final residual = 2.36843e-07, No Iterations 0
smoothSolver:  Solving for Uy, Initial residual = 2.2657e-07, Final residual = 2.2657e-07, No Iterations 0
DICPCG:  Solving for p, Initial residual = 0.000201776, Final residual = 1.95119e-06, No Iterations 129
time step continuity errors : sum local = 3.25809e-11, global = -9.87348e-21, cumulative = 4.19685e-16
DICPCG:  Solving for p, Initial residual = 2.78542e-06, Final residual = 9.81742e-07, No Iterations 6
time step continuity errors : sum local = 1.75464e-11, global = 1.6683e-20, cumulative = 4.19702e-16
ExecutionTime = 2.25 s  ClockTime = 2 s

scalarTransport execute: s
DILUPBiCGStab:  Solving for s, Initial residual = 0.0014692, Final residual = 2.08732e-09, No Iterations 1
DILUPBiCGStab:  Solving for s, Initial residual = 3.27573e-05, Final residual = 8.63162e-12, No Iterations 1

Courant Number mean: 0.103425 max: 0.376706
deltaT = 0.00166667
Time = 0.0466667

PIMPLE: iteration 1
smoothSolver:  Solving for Ux, Initial residual = 6.64188e-05, Final residual = 2.78046e-07, No Iterations 1
smoothSolver:  Solving for Uy, Initial residual = 6.57712e-05, Final residual = 2.80095e-07, No Iterations 1
DICPCG:  Solving for p, Initial residual = 0.000312692, Final residual = 3.1045e-06, No Iterations 108
time step continuity errors : sum local = 5.34039e-11, global = -1.59732e-20, cumulative = 4.19686e-16
DICPCG:  Solving for p, Initial residual = 6.43886e-05, Final residual = 9.43012e-07, No Iterations 253
time step continuity errors : sum local = 1.46733e-11, global = 2.16744e-20, cumulative = 4.19708e-16
PIMPLE: iteration 2
smoothSolver:  Solving for Ux, Initial residual = 2.36858e-07, Final residual = 2.36858e-07, No Iterations 0
smoothSolver:  Solving for Uy, Initial residual = 2.26606e-07, Final residual = 2.26606e-07, No Iterations 0
DICPCG:  Solving for p, Initial residual = 0.00020176, Final residual = 1.94702e-06, No Iterations 129
time step continuity errors : sum local = 3.2509e-11, global = 1.5545e-20, cumulative = 4.19723e-16
DICPCG:  Solving for p, Initial residual = 2.79083e-06, Final residual = 9.8657e-07, No Iterations 6
time step continuity errors : sum local = 1.76148e-11, global = -1.80819e-20, cumulative = 4.19705e-16
ExecutionTime = 2.33 s  ClockTime = 2 s

scalarTransport execute: s
DILUPBiCGStab:  Solving for s, Initial residual = 0.00146934, Final residual = 2.10293e-09, No Iterations 1
DILUPBiCGStab:  Solving for s, Initial residual = 3.66665e-05, Final residual = 1.05612e-11, No Iterations 1

Courant Number mean: 0.103426 max: 0.376705
deltaT = 0.00166667
Time = 0.0483333

PIMPLE: iteration 1
smoothSolver:  Solving for Ux, Initial residual = 6.64266e-05, Final residual = 2.78079e-07, No Iterations 1
smoothSolver:  Solving for Uy, Initial residual = 6.57739e-05, Final residual = 2.80101e-07, No Iterations 1
DICPCG:  Solving for p, Initial residual = 0.000310767, Final residual = 3.0227e-06, No Iterations 131
time step continuity errors : sum local = 5.16873e-11, global = -3.40494e-20, cumulative = 4.19671e-16
DICPCG:  Solving for p, Initial residual = 6.54047e-05, Final residual = 9.82797e-07, No Iterations 237
time step continuity errors : sum local = 1.53689e-11, global = -6.20938e-21, cumulative = 4.19665e-16
PIMPLE: iteration 2
smoothSolver:  Solving for Ux, Initial residual = 2.3684e-07, Final residual = 2.3684e-07, No Iterations 0
smoothSolver:  Solving for Uy, Initial residual = 2.26658e-07, Final residual = 2.26658e-07, No Iterations 0
DICPCG:  Solving for p, Initial residual = 0.00020183, Final residual = 1.9654e-06, No Iterations 129
time step continuity errors : sum local = 3.28168e-11, global = 1.97963e-20, cumulative = 4.19685e-16
DICPCG:  Solving for p, Initial residual = 2.81503e-06, Final residual = 9.94556e-07, No Iterations 6
time step continuity errors : sum local = 1.77583e-11, global = 2.29923e-20, cumulative = 4.19708e-16
ExecutionTime = 2.41 s  ClockTime = 2 s

scalarTransport execute: s
DILUPBiCGStab:  Solving for s, Initial residual = 0.00146946, Final residual = 2.12307e-09, No Iterations 1
DILUPBiCGStab:  Solving for s, Initial residual = 3.54826e-05, Final residual = 1.17369e-11, No Iterations 1

Courant Number mean: 0.103426 max: 0.376704
deltaT = 0.00166667
Time = 0.05

PIMPLE: iteration 1
smoothSolver:  Solving for Ux, Initial residual = 6.64323e-05, Final residual = 2.78111e-07, No Iterations 1
smoothSolver:  Solving for Uy, Initial residual = 6.57773e-05, Final residual = 2.80101e-07, No Iterations 1
DICPCG:  Solving for p, Initial residual = 0.000302334, Final residual = 3.00446e-06, No Iterations 136
time step continuity errors : sum local = 5.13933e-11, global = -1.40157e-20, cumulative = 4.19694e-16
DICPCG:  Solving for p, Initial residual = 6.49332e-05, Final residual = 9.78253e-07, No Iterations 238
time step continuity errors : sum local = 1.52977e-11, global = 4.17773e-21, cumulative = 4.19698e-16
PIMPLE: iteration 2
smoothSolver:  Solving for Ux, Initial residual = 2.36833e-07, Final residual = 2.36833e-07, No Iterations 0
smoothSolver:  Solving for Uy, Initial residual = 2.26698e-07, Final residual = 2.26698e-07, No Iterations 0
DICPCG:  Solving for p, Initial residual = 0.000201765, Final residual = 1.95776e-06, No Iterations 129
time step continuity errors : sum local = 3.27074e-11, global = -6.19094e-21, cumulative = 4.19692e-16
DICPCG:  Solving for p, Initial residual = 2.79984e-06, Final residual = 9.87911e-07, No Iterations 6
time step continuity errors : sum local = 1.76633e-11, global = 2.2991e-20, cumulative = 4.19715e-16
ExecutionTime = 2.51 s  ClockTime = 2 s

scalarTransport execute: s
DILUPBiCGStab:  Solving for s, Initial residual = 0.00146958, Final residual = 2.15007e-09, No Iterations 1
DILUPBiCGStab:  Solving for s, Initial residual = 3.33276e-05, Final residual = 1.18845e-11, No Iterations 1

Courant Number mean: 0.103427 max: 0.376703
deltaT = 0.00166667
Time = 0.0516667

PIMPLE: iteration 1
smoothSolver:  Solving for Ux, Initial residual = 6.64378e-05, Final residual = 2.7814e-07, No Iterations 1
smoothSolver:  Solving for Uy, Initial residual = 6.57804e-05, Final residual = 2.80101e-07, No Iterations 1
DICPCG:  Solving for p, Initial residual = 0.000294471, Final residual = 2.86967e-06, No Iterations 138
time step continuity errors : sum local = 4.9283e-11, global = -1.43164e-20, cumulative = 4.197e-16
DICPCG:  Solving for p, Initial residual = 6.42495e-05, Final residual = 9.76765e-07, No Iterations 237
time step continuity errors : sum local = 1.52742e-11, global = -2.16194e-20, cumulative = 4.19679e-16
PIMPLE: iteration 2
smoothSolver:  Solving for Ux, Initial residual = 2.36827e-07, Final residual = 2.36827e-07, No Iterations 0
smoothSolver:  Solving for Uy, Initial residual = 2.26737e-07, Final residual = 2.26737e-07, No Iterations 0
DICPCG:  Solving for p, Initial residual = 0.000201737, Final residual = 1.95393e-06, No Iterations 129
time step continuity errors : sum local = 3.266e-11, global = -1.16192e-20, cumulative = 4.19667e-16
DICPCG:  Solving for p, Initial residual = 2.79267e-06, Final residual = 9.84911e-07, No Iterations 6
time step continuity errors : sum local = 1.76274e-11, global = 2.10466e-21, cumulative = 4.19669e-16
ExecutionTime = 2.6 s  ClockTime = 2 s

scalarTransport execute: s
DILUPBiCGStab:  Solving for s, Initial residual = 0.00146969, Final residual = 2.18864e-09, No Iterations 1
DILUPBiCGStab:  Solving for s, Initial residual = 3.08669e-05, Final residual = 1.21884e-11, No Iterations 1

Courant Number mean: 0.103428 max: 0.376702
deltaT = 0.00166667
Time = 0.0533333

PIMPLE: iteration 1
smoothSolver:  Solving for Ux, Initial residual = 6.64439e-05, Final residual = 2.78177e-07, No Iterations 1
smoothSolver:  Solving for Uy, Initial residual = 6.57832e-05, Final residual = 2.80099e-07, No Iterations 1
DICPCG:  Solving for p, Initial residual = 0.000298826, Final residual = 2.8906e-06, No Iterations 137
time step continuity errors : sum local = 4.96069e-11, global = -1.96733e-21, cumulative = 4.19667e-16
DICPCG:  Solving for p, Initial residual = 6.4407e-05, Final residual = 9.91918e-07, No Iterations 241
time step continuity errors : sum local = 1.55107e-11, global = -2.99003e-20, cumulative = 4.19637e-16
PIMPLE: iteration 2
smoothSolver:  Solving for Ux, Initial residual = 2.36826e-07, Final residual = 2.36826e-07, No Iterations 0
smoothSolver:  Solving for Uy, Initial residual = 2.26772e-07, Final residual = 2.26772e-07, No Iterations 0
DICPCG:  Solving for p, Initial residual = 0.000201742, Final residual = 1.9584e-06, No Iterations 129
time step continuity errors : sum local = 3.27416e-11, global = 1.56317e-20, cumulative = 4.19653e-16
DICPCG:  Solving for p, Initial residual = 2.79541e-06, Final residual = 9.87797e-07, No Iterations 6
time step continuity errors : sum local = 1.76835e-11, global = 1.44064e-20, cumulative = 4.19668e-16
ExecutionTime = 2.68 s  ClockTime = 2 s

scalarTransport execute: s
DILUPBiCGStab:  Solving for s, Initial residual = 0.00146979, Final residual = 2.24276e-09, No Iterations 1
DILUPBiCGStab:  Solving for s, Initial residual = 3.02979e-05, Final residual = 1.29642e-11, No Iterations 1

Courant Number mean: 0.103428 max: 0.376701
deltaT = 0.00166667
Time = 0.055

PIMPLE: iteration 1
smoothSolver:  Solving for Ux, Initial residual = 6.64495e-05, Final residual = 2.78215e-07, No Iterations 1
smoothSolver:  Solving for Uy, Initial residual = 6.5786e-05, Final residual = 2.80096e-07, No Iterations 1
DICPCG:  Solving for p, Initial residual = 0.000323725, Final residual = 3.23098e-06, No Iterations 125
time step continuity errors : sum local = 5.50461e-11, global = 1.34234e-20, cumulative = 4.19681e-16
DICPCG:  Solving for p, Initial residual = 6.53058e-05, Final residual = 9.68571e-07, No Iterations 250
time step continuity errors : sum local = 1.51175e-11, global = -3.8494e-20, cumulative = 4.19642e-16
PIMPLE: iteration 2
smoothSolver:  Solving for Ux, Initial residual = 2.36837e-07, Final residual = 2.36837e-07, No Iterations 0
smoothSolver:  Solving for Uy, Initial residual = 2.26804e-07, Final residual = 2.26804e-07, No Iterations 0
DICPCG:  Solving for p, Initial residual = 0.000201718, Final residual = 1.98477e-06, No Iterations 129
time step continuity errors : sum local = 3.31629e-11, global = -6.97326e-20, cumulative = 4.19573e-16
DICPCG:  Solving for p, Initial residual = 2.82181e-06, Final residual = 9.84808e-07, No Iterations 7
time step continuity errors : sum local = 1.76497e-11, global = -3.26351e-21, cumulative = 4.19569e-16
ExecutionTime = 2.76 s  ClockTime = 3 s

scalarTransport execute: s
DILUPBiCGStab:  Solving for s, Initial residual = 0.00146988, Final residual = 2.31873e-09, No Iterations 1
DILUPBiCGStab:  Solving for s, Initial residual = 3.06959e-05, Final residual = 1.4415e-11, No Iterations 1

Courant Number mean: 0.103429 max: 0.3767
deltaT = 0.00166667
Time = 0.0566667

PIMPLE: iteration 1
smoothSolver:  Solving for Ux, Initial residual = 6.64551e-05, Final residual = 2.7825e-07, No Iterations 1
smoothSolver:  Solving for Uy, Initial residual = 6.57886e-05, Final residual = 2.8009e-07, No Iterations 1
DICPCG:  Solving for p, Initial residual = 0.000334734, Final residual = 3.22826e-06, No Iterations 89
time step continuity errors : sum local = 5.56965e-11, global = -1.36987e-20, cumulative = 4.19556e-16
DICPCG:  Solving for p, Initial residual = 6.62865e-05, Final residual = 9.84358e-07, No Iterations 251
time step continuity errors : sum local = 1.53263e-11, global = -2.22956e-20, cumulative = 4.19533e-16
PIMPLE: iteration 2
smoothSolver:  Solving for Ux, Initial residual = 2.36841e-07, Final residual = 2.36841e-07, No Iterations 0
smoothSolver:  Solving for Uy, Initial residual = 2.26849e-07, Final residual = 2.26849e-07, No Iterations 0
DICPCG:  Solving for p, Initial residual = 0.000201775, Final residual = 1.99186e-06, No Iterations 129
time step continuity errors : sum local = 3.32799e-11, global = 1.94942e-20, cumulative = 4.19553e-16
DICPCG:  Solving for p, Initial residual = 2.83756e-06, Final residual = 9.89906e-07, No Iterations 7
time step continuity errors : sum local = 1.77353e-11, global = 2.39708e-21, cumulative = 4.19555e-16
ExecutionTime = 2.84 s  ClockTime = 3 s

scalarTransport execute: s
DILUPBiCGStab:  Solving for s, Initial residual = 0.00146999, Final residual = 2.42687e-09, No Iterations 1
DILUPBiCGStab:  Solving for s, Initial residual = 2.83897e-05, Final residual = 1.6761e-11, No Iterations 1

Courant Number mean: 0.10343 max: 0.376699
deltaT = 0.00166667
Time = 0.0583333

PIMPLE: iteration 1
smoothSolver:  Solving for Ux, Initial residual = 6.64601e-05, Final residual = 2.78293e-07, No Iterations 1
smoothSolver:  Solving for Uy, Initial residual = 6.57921e-05, Final residual = 2.80091e-07, No Iterations 1
DICPCG:  Solving for p, Initial residual = 0.000308617, Final residual = 3.04426e-06, No Iterations 130
time step continuity errors : sum local = 5.19947e-11, global = -3.19749e-21, cumulative = 4.19552e-16
DICPCG:  Solving for p, Initial residual = 6.58898e-05, Final residual = 9.67035e-07, No Iterations 228
time step continuity errors : sum local = 1.51238e-11, global = -4.59111e-20, cumulative = 4.19506e-16
PIMPLE: iteration 2
smoothSolver:  Solving for Ux, Initial residual = 2.36851e-07, Final residual = 2.36851e-07, No Iterations 0
smoothSolver:  Solving for Uy, Initial residual = 2.26898e-07, Final residual = 2.26898e-07, No Iterations 0
DICPCG:  Solving for p, Initial residual = 0.000201815, Final residual = 1.97822e-06, No Iterations 129
time step continuity errors : sum local = 3.30888e-11, global = 1.41005e-20, cumulative = 4.1952e-16
DICPCG:  Solving for p, Initial residual = 2.8223e-06, Final residual = 9.94121e-07, No Iterations 6
time step continuity errors : sum local = 1.78174e-11, global = -7.9595e-21, cumulative = 4.19512e-16
ExecutionTime = 2.91 s  ClockTime = 3 s

scalarTransport execute: s
DILUPBiCGStab:  Solving for s, Initial residual = 0.00147011, Final residual = 2.58113e-09, No Iterations 1
DILUPBiCGStab:  Solving for s, Initial residual = 3.09944e-05, Final residual = 2.26377e-11, No Iterations 1

Courant Number mean: 0.10343 max: 0.376698
deltaT = 0.00166667
Time = 0.06

PIMPLE: iteration 1
smoothSolver:  Solving for Ux, Initial residual = 6.64651e-05, Final residual = 2.78322e-07, No Iterations 1
smoothSolver:  Solving for Uy, Initial residual = 6.57943e-05, Final residual = 2.80083e-07, No Iterations 1
DICPCG:  Solving for p, Initial residual = 0.000293634, Final residual = 2.8386e-06, No Iterations 137
time step continuity errors : sum local = 4.88311e-11, global = -2.48164e-20, cumulative = 4.19488e-16
DICPCG:  Solving for p, Initial residual = 6.4777e-05, Final residual = 9.89068e-07, No Iterations 231
time step continuity errors : sum local = 1.54785e-11, global = -5.95334e-20, cumulative = 4.19428e-16
PIMPLE: iteration 2
smoothSolver:  Solving for Ux, Initial residual = 2.36846e-07, Final residual = 2.36846e-07, No Iterations 0
smoothSolver:  Solving for Uy, Initial residual = 2.26938e-07, Final residual = 2.26938e-07, No Iterations 0
DICPCG:  Solving for p, Initial residual = 0.000201815, Final residual = 1.97472e-06, No Iterations 129
time step continuity errors : sum local = 3.30454e-11, global = -1.32698e-20, cumulative = 4.19415e-16
DICPCG:  Solving for p, Initial residual = 2.81395e-06, Final residual = 9.88981e-07, No Iterations 6
time step continuity errors : sum local = 1.7747e-11, global = -5.80273e-20, cumulative = 4.19357e-16
ExecutionTime = 3.02 s  ClockTime = 3 s

scalarTransport execute: s
DILUPBiCGStab:  Solving for s, Initial residual = 0.00147023, Final residual = 2.80636e-09, No Iterations 1
DILUPBiCGStab:  Solving for s, Initial residual = 2.97141e-05, Final residual = 2.89598e-11, No Iterations 1

Courant Number mean: 0.103431 max: 0.376697
deltaT = 0.00166667
Time = 0.0616667

PIMPLE: iteration 1
smoothSolver:  Solving for Ux, Initial residual = 6.64701e-05, Final residual = 2.7836e-07, No Iterations 1
smoothSolver:  Solving for Uy, Initial residual = 6.57967e-05, Final residual = 2.80077e-07, No Iterations 1
DICPCG:  Solving for p, Initial residual = 0.000305754, Final residual = 3.04178e-06, No Iterations 132
time step continuity errors : sum local = 5.19888e-11, global = 8.95713e-21, cumulative = 4.19366e-16
DICPCG:  Solving for p, Initial residual = 6.55673e-05, Final residual = 9.62111e-07, No Iterations 230
time step continuity errors : sum local = 1.50572e-11, global = 2.99359e-20, cumulative = 4.19396e-16
PIMPLE: iteration 2
smoothSolver:  Solving for Ux, Initial residual = 2.36854e-07, Final residual = 2.36854e-07, No Iterations 0
smoothSolver:  Solving for Uy, Initial residual = 2.26979e-07, Final residual = 2.26979e-07, No Iterations 0
DICPCG:  Solving for p, Initial residual = 0.000201842, Final residual = 1.98862e-06, No Iterations 129
time step continuity errors : sum local = 3.3275e-11, global = -2.49831e-20, cumulative = 4.19371e-16
DICPCG:  Solving for p, Initial residual = 2.83002e-06, Final residual = 9.94761e-07, No Iterations 6
time step continuity errors : sum local = 1.7849e-11, global = 4.02047e-20, cumulative = 4.19411e-16
ExecutionTime = 3.1 s  ClockTime = 3 s

scalarTransport execute: s
DILUPBiCGStab:  Solving for s, Initial residual = 0.00147035, Final residual = 3.13998e-09, No Iterations 1
DILUPBiCGStab:  Solving for s, Initial residual = 2.86687e-05, Final residual = 4.00431e-11, No Iterations 1

Courant Number mean: 0.103432 max: 0.376697
deltaT = 0.00166667
Time = 0.0633333

PIMPLE: iteration 1
smoothSolver:  Solving for Ux, Initial residual = 6.64747e-05, Final residual = 2.78396e-07, No Iterations 1
smoothSolver:  Solving for Uy, Initial residual = 6.57987e-05, Final residual = 2.80071e-07, No Iterations 1
DICPCG:  Solving for p, Initial residual = 0.000308735, Final residual = 3.04333e-06, No Iterations 139
time step continuity errors : sum local = 5.22976e-11, global = 2.57872e-20, cumulative = 4.19437e-16
DICPCG:  Solving for p, Initial residual = 6.60907e-05, Final residual = 9.52833e-07, No Iterations 239
time step continuity errors : sum local = 1.49138e-11, global = -3.34873e-21, cumulative = 4.19433e-16
PIMPLE: iteration 2
smoothSolver:  Solving for Ux, Initial residual = 2.36842e-07, Final residual = 2.36842e-07, No Iterations 0
smoothSolver:  Solving for Uy, Initial residual = 2.27022e-07, Final residual = 2.27022e-07, No Iterations 0
DICPCG:  Solving for p, Initial residual = 0.000201824, Final residual = 1.96625e-06, No Iterations 129
time step continuity errors : sum local = 3.29246e-11, global = -2.24021e-20, cumulative = 4.19411e-16
DICPCG:  Solving for p, Initial residual = 2.81336e-06, Final residual = 9.81363e-07, No Iterations 6
time step continuity errors : sum local = 1.76369e-11, global = -2.0769e-20, cumulative = 4.1939e-16
ExecutionTime = 3.18 s  ClockTime = 3 s

scalarTransport execute: s
DILUPBiCGStab:  Solving for s, Initial residual = 0.00147045, Final residual = 3.65444e-09, No Iterations 1
DILUPBiCGStab:  Solving for s, Initial residual = 2.55423e-05, Final residual = 6.01625e-11, No Iterations 1

Courant Number mean: 0.103432 max: 0.376696
deltaT = 0.00166667
Time = 0.065

PIMPLE: iteration 1
smoothSolver:  Solving for Ux, Initial residual = 6.64795e-05, Final residual = 2.78424e-07, No Iterations 1
smoothSolver:  Solving for Uy, Initial residual = 6.57996e-05, Final residual = 2.80063e-07, No Iterations 1
DICPCG:  Solving for p, Initial residual = 0.000297874, Final residual = 2.82029e-06, No Iterations 138
time step continuity errors : sum local = 4.86658e-11, global = -1.85028e-20, cumulative = 4.19372e-16
DICPCG:  Solving for p, Initial residual = 6.57752e-05, Final residual = 9.79091e-07, No Iterations 231
time step continuity errors : sum local = 1.53243e-11, global = 1.22707e-20, cumulative = 4.19384e-16
PIMPLE: iteration 2
smoothSolver:  Solving for Ux, Initial residual = 2.36848e-07, Final residual = 2.36848e-07, No Iterations 0
smoothSolver:  Solving for Uy, Initial residual = 2.27063e-07, Final residual = 2.27063e-07, No Iterations 0
DICPCG:  Solving for p, Initial residual = 0.000201852, Final residual = 1.98095e-06, No Iterations 129
time step continuity errors : sum local = 3.31726e-11, global = 1.28466e-20, cumulative = 4.19397e-16
DICPCG:  Solving for p, Initial residual = 2.82396e-06, Final residual = 9.87057e-07, No Iterations 6
time step continuity errors : sum local = 1.77437e-11, global = -1.69709e-20, cumulative = 4.1938e-16
ExecutionTime = 3.26 s  ClockTime = 3 s

scalarTransport execute: s
DILUPBiCGStab:  Solving for s, Initial residual = 0.00147054, Final residual = 4.45324e-09, No Iterations 1
DILUPBiCGStab:  Solving for s, Initial residual = 2.76218e-05, Final residual = 9.01912e-11, No Iterations 1

Courant Number mean: 0.103433 max: 0.376695
deltaT = 0.00166667
Time = 0.0666667

PIMPLE: iteration 1
smoothSolver:  Solving for Ux, Initial residual = 6.64839e-05, Final residual = 2.78467e-07, No Iterations 1
smoothSolver:  Solving for Uy, Initial residual = 6.5801e-05, Final residual = 2.80059e-07, No Iterations 1
DICPCG:  Solving for p, Initial residual = 0.000301242, Final residual = 2.96972e-06, No Iterations 137
time step continuity errors : sum local = 5.11247e-11, global = -1.77465e-20, cumulative = 4.19362e-16
DICPCG:  Solving for p, Initial residual = 6.61164e-05, Final residual = 9.72738e-07, No Iterations 242
time step continuity errors : sum local = 1.52202e-11, global = -2.84732e-20, cumulative = 4.19334e-16
PIMPLE: iteration 2
smoothSolver:  Solving for Ux, Initial residual = 2.36848e-07, Final residual = 2.36848e-07, No Iterations 0
smoothSolver:  Solving for Uy, Initial residual = 2.27109e-07, Final residual = 2.27109e-07, No Iterations 0
DICPCG:  Solving for p, Initial residual = 0.00020184, Final residual = 1.97828e-06, No Iterations 129
time step continuity errors : sum local = 3.31356e-11, global = -3.40013e-20, cumulative = 4.193e-16
DICPCG:  Solving for p, Initial residual = 2.82578e-06, Final residual = 9.86177e-07, No Iterations 6
time step continuity errors : sum local = 1.77332e-11, global = 3.21957e-20, cumulative = 4.19332e-16
ExecutionTime = 3.34 s  ClockTime = 3 s

scalarTransport execute: s
DILUPBiCGStab:  Solving for s, Initial residual = 0.00147064, Final residual = 5.64977e-09, No Iterations 1
DILUPBiCGStab:  Solving for s, Initial residual = 2.50412e-05, Final residual = 1.34692e-10, No Iterations 1

Courant Number mean: 0.103434 max: 0.376694
deltaT = 0.00166667
Time = 0.0683333

PIMPLE: iteration 1
smoothSolver:  Solving for Ux, Initial residual = 6.64876e-05, Final residual = 2.78513e-07, No Iterations 1
smoothSolver:  Solving for Uy, Initial residual = 6.58033e-05, Final residual = 2.80055e-07, No Iterations 1
DICPCG:  Solving for p, Initial residual = 0.000294598, Final residual = 2.93779e-06, No Iterations 137
time step continuity errors : sum local = 5.05192e-11, global = -2.5024e-20, cumulative = 4.19307e-16
DICPCG:  Solving for p, Initial residual = 6.67402e-05, Final residual = 9.90191e-07, No Iterations 228
time step continuity errors : sum local = 1.54878e-11, global = -2.31847e-20, cumulative = 4.19284e-16
PIMPLE: iteration 2
smoothSolver:  Solving for Ux, Initial residual = 2.36853e-07, Final residual = 2.36853e-07, No Iterations 0
smoothSolver:  Solving for Uy, Initial residual = 2.2715e-07, Final residual = 2.2715e-07, No Iterations 0
DICPCG:  Solving for p, Initial residual = 0.000201902, Final residual = 1.99192e-06, No Iterations 129
time step continuity errors : sum local = 3.33645e-11, global = -2.41426e-20, cumulative = 4.19259e-16
DICPCG:  Solving for p, Initial residual = 2.84147e-06, Final residual = 9.91329e-07, No Iterations 6
time step continuity errors : sum local = 1.78292e-11, global = -2.06751e-20, cumulative = 4.19239e-16
ExecutionTime = 3.43 s  ClockTime = 3 s

scalarTransport execute: s
DILUPBiCGStab:  Solving for s, Initial residual = 0.00147075, Final residual = 7.39464e-09, No Iterations 1
DILUPBiCGStab:  Solving for s, Initial residual = 2.4989e-05, Final residual = 1.92918e-10, No Iterations 1

Courant Number mean: 0.103434 max: 0.376694
deltaT = 0.00166667
Time = 0.07

PIMPLE: iteration 1
smoothSolver:  Solving for Ux, Initial residual = 6.64917e-05, Final residual = 2.78553e-07, No Iterations 1
smoothSolver:  Solving for Uy, Initial residual = 6.58057e-05, Final residual = 2.80043e-07, No Iterations 1
DICPCG:  Solving for p, Initial residual = 0.000292027, Final residual = 2.77616e-06, No Iterations 138
time step continuity errors : sum local = 4.81063e-11, global = -1.81705e-20, cumulative = 4.19221e-16
DICPCG:  Solving for p, Initial residual = 6.64489e-05, Final residual = 9.90465e-07, No Iterations 232
time step continuity errors : sum local = 1.55083e-11, global = 3.17737e-21, cumulative = 4.19224e-16
PIMPLE: iteration 2
smoothSolver:  Solving for Ux, Initial residual = 2.36846e-07, Final residual = 2.36846e-07, No Iterations 0
smoothSolver:  Solving for Uy, Initial residual = 2.27193e-07, Final residual = 2.27193e-07, No Iterations 0
DICPCG:  Solving for p, Initial residual = 0.000201913, Final residual = 1.98725e-06, No Iterations 129
time step continuity errors : sum local = 3.33003e-11, global = 2.60973e-21, cumulative = 4.19226e-16
DICPCG:  Solving for p, Initial residual = 2.8336e-06, Final residual = 9.87035e-07, No Iterations 6
time step continuity errors : sum local = 1.77693e-11, global = -8.48051e-20, cumulative = 4.19142e-16
ExecutionTime = 3.53 s  ClockTime = 3 s

scalarTransport execute: s
DILUPBiCGStab:  Solving for s, Initial residual = 0.00147085, Final residual = 9.8438e-09, No Iterations 1
DILUPBiCGStab:  Solving for s, Initial residual = 2.65171e-05, Final residual = 2.63254e-10, No Iterations 1

Courant Number mean: 0.103435 max: 0.376693
deltaT = 0.00166667
Time = 0.0716667

PIMPLE: iteration 1
smoothSolver:  Solving for Ux, Initial residual = 6.6496e-05, Final residual = 2.7859e-07, No Iterations 1
smoothSolver:  Solving for Uy, Initial residual = 6.58085e-05, Final residual = 2.8004e-07, No Iterations 1
DICPCG:  Solving for p, Initial residual = 0.000287555, Final residual = 2.855e-06, No Iterations 141
time step continuity errors : sum local = 4.93906e-11, global = -5.77701e-21, cumulative = 4.19136e-16
DICPCG:  Solving for p, Initial residual = 6.59496e-05, Final residual = 9.8161e-07, No Iterations 237
time step continuity errors : sum local = 1.53701e-11, global = 1.17025e-20, cumulative = 4.19147e-16
PIMPLE: iteration 2
smoothSolver:  Solving for Ux, Initial residual = 2.36836e-07, Final residual = 2.36836e-07, No Iterations 0
smoothSolver:  Solving for Uy, Initial residual = 2.27234e-07, Final residual = 2.27234e-07, No Iterations 0
DICPCG:  Solving for p, Initial residual = 0.000201909, Final residual = 1.982e-06, No Iterations 129
time step continuity errors : sum local = 3.32259e-11, global = -3.63478e-20, cumulative = 4.19111e-16
DICPCG:  Solving for p, Initial residual = 2.82986e-06, Final residual = 9.83384e-07, No Iterations 6
time step continuity errors : sum local = 1.77184e-11, global = -2.58413e-21, cumulative = 4.19109e-16
ExecutionTime = 3.62 s  ClockTime = 3 s

scalarTransport execute: s
DILUPBiCGStab:  Solving for s, Initial residual = 0.00147095, Final residual = 1.31425e-09, No Iterations 2
DILUPBiCGStab:  Solving for s, Initial residual = 2.61e-05, Final residual = 5.02212e-11, No Iterations 1

Courant Number mean: 0.103436 max: 0.376692
deltaT = 0.00166667
Time = 0.0733333

PIMPLE: iteration 1
smoothSolver:  Solving for Ux, Initial residual = 6.6501e-05, Final residual = 2.78632e-07, No Iterations 1
smoothSolver:  Solving for Uy, Initial residual = 6.58108e-05, Final residual = 2.80032e-07, No Iterations 1
DICPCG:  Solving for p, Initial residual = 0.00029788, Final residual = 2.9734e-06, No Iterations 136
time step continuity errors : sum local = 5.11052e-11, global = -1.26235e-20, cumulative = 4.19096e-16
DICPCG:  Solving for p, Initial residual = 6.67479e-05, Final residual = 9.55737e-07, No Iterations 237
time step continuity errors : sum local = 1.49645e-11, global = 1.28894e-20, cumulative = 4.19109e-16
PIMPLE: iteration 2
smoothSolver:  Solving for Ux, Initial residual = 2.36842e-07, Final residual = 2.36842e-07, No Iterations 0
smoothSolver:  Solving for Uy, Initial residual = 2.27283e-07, Final residual = 2.27283e-07, No Iterations 0
DICPCG:  Solving for p, Initial residual = 0.000201958, Final residual = 2.00021e-06, No Iterations 129
time step continuity errors : sum local = 3.35248e-11, global = -1.92887e-20, cumulative = 4.1909e-16
DICPCG:  Solving for p, Initial residual = 2.85123e-06, Final residual = 9.92548e-07, No Iterations 6
time step continuity errors : sum local = 1.78753e-11, global = 4.34819e-20, cumulative = 4.19133e-16
ExecutionTime = 3.7 s  ClockTime = 3 s

scalarTransport execute: s
DILUPBiCGStab:  Solving for s, Initial residual = 0.00147105, Final residual = 1.75314e-09, No Iterations 2
DILUPBiCGStab:  Solving for s, Initial residual = 2.49931e-05, Final residual = 7.05072e-11, No Iterations 1

Courant Number mean: 0.103436 max: 0.376692
deltaT = 0.00166667
Time = 0.075

PIMPLE: iteration 1
smoothSolver:  Solving for Ux, Initial residual = 6.65062e-05, Final residual = 2.78678e-07, No Iterations 1
smoothSolver:  Solving for Uy, Initial residual = 6.58123e-05, Final residual = 2.80021e-07, No Iterations 1
DICPCG:  Solving for p, Initial residual = 0.000312223, Final residual = 3.10556e-06, No Iterations 137
time step continuity errors : sum local = 5.33945e-11, global = 1.93219e-21, cumulative = 4.19135e-16
DICPCG:  Solving for p, Initial residual = 6.7777e-05, Final residual = 9.81281e-07, No Iterations 246
time step continuity errors : sum local = 1.53535e-11, global = 6.06296e-22, cumulative = 4.19136e-16
PIMPLE: iteration 2
smoothSolver:  Solving for Ux, Initial residual = 2.3683e-07, Final residual = 2.3683e-07, No Iterations 0
smoothSolver:  Solving for Uy, Initial residual = 2.27328e-07, Final residual = 2.27328e-07, No Iterations 0
DICPCG:  Solving for p, Initial residual = 0.000201925, Final residual = 2.00205e-06, No Iterations 129
time step continuity errors : sum local = 3.35541e-11, global = 1.66781e-20, cumulative = 4.19152e-16
DICPCG:  Solving for p, Initial residual = 2.85361e-06, Final residual = 9.96558e-07, No Iterations 6
time step continuity errors : sum local = 1.79372e-11, global = -2.55556e-20, cumulative = 4.19127e-16
ExecutionTime = 3.78 s  ClockTime = 4 s

scalarTransport execute: s
DILUPBiCGStab:  Solving for s, Initial residual = 0.00147115, Final residual = 2.29331e-09, No Iterations 2
DILUPBiCGStab:  Solving for s, Initial residual = 2.46858e-05, Final residual = 9.96214e-11, No Iterations 1

Courant Number mean: 0.103437 max: 0.376691
deltaT = 0.00166667
Time = 0.0766667

PIMPLE: iteration 1
smoothSolver:  Solving for Ux, Initial residual = 6.65112e-05, Final residual = 2.78715e-07, No Iterations 1
smoothSolver:  Solving for Uy, Initial residual = 6.58137e-05, Final residual = 2.8e-07, No Iterations 1
DICPCG:  Solving for p, Initial residual = 0.000330575, Final residual = 3.24887e-06, No Iterations 125
time step continuity errors : sum local = 5.5467e-11, global = -4.1775e-20, cumulative = 4.19085e-16
DICPCG:  Solving for p, Initial residual = 6.72777e-05, Final residual = 9.81937e-07, No Iterations 237
time step continuity errors : sum local = 1.53089e-11, global = -7.78826e-21, cumulative = 4.19077e-16
PIMPLE: iteration 2
smoothSolver:  Solving for Ux, Initial residual = 2.36859e-07, Final residual = 2.36859e-07, No Iterations 0
smoothSolver:  Solving for Uy, Initial residual = 2.27361e-07, Final residual = 2.27361e-07, No Iterations 0
DICPCG:  Solving for p, Initial residual = 0.000201983, Final residual = 1.94139e-06, No Iterations 130
time step continuity errors : sum local = 3.26326e-11, global = -1.3447e-20, cumulative = 4.19064e-16
DICPCG:  Solving for p, Initial residual = 2.79019e-06, Final residual = 9.70442e-07, No Iterations 6
time step continuity errors : sum local = 1.75514e-11, global = -2.42896e-20, cumulative = 4.19039e-16
ExecutionTime = 3.86 s  ClockTime = 4 s

scalarTransport execute: s
DILUPBiCGStab:  Solving for s, Initial residual = 0.00147123, Final residual = 2.93608e-09, No Iterations 2
DILUPBiCGStab:  Solving for s, Initial residual = 2.41985e-05, Final residual = 1.37495e-10, No Iterations 1

Courant Number mean: 0.103438 max: 0.37669
deltaT = 0.00166667
Time = 0.0783333

PIMPLE: iteration 1
smoothSolver:  Solving for Ux, Initial residual = 6.65158e-05, Final residual = 2.78758e-07, No Iterations 1
smoothSolver:  Solving for Uy, Initial residual = 6.58178e-05, Final residual = 2.79999e-07, No Iterations 1
[...]

Courant Number mean: 0.103439 max: 0.376689
deltaT = 0.00166667
Time = 0.0816667

PIMPLE: iteration 1
smoothSolver:  Solving for Ux, Initial residual = 6.65256e-05, Final residual = 2.78838e-07, No Iterations 1
smoothSolver:  Solving for Uy, Initial residual = 6.58235e-05, Final residual = 2.79966e-07, No Iterations 1
DICPCG:  Solving for p, Initial residual = 0.000306318, Final residual = 3.03439e-06, No Iterations 137
time step continuity errors : sum local = 5.23101e-11, global = -9.02544e-21, cumulative = 4.19153e-16
DICPCG:  Solving for p, Initial residual = 6.7622e-05, Final residual = 9.70539e-07, No Iterations 228
time step continuity errors : sum local = 1.51581e-11, global = -3.69569e-20, cumulative = 4.19116e-16
PIMPLE: iteration 2
smoothSolver:  Solving for Ux, Initial residual = 2.36846e-07, Final residual = 2.36846e-07, No Iterations 0
smoothSolver:  Solving for Uy, Initial residual = 2.27522e-07, Final residual = 2.27522e-07, No Iterations 0
DICPCG:  Solving for p, Initial residual = 0.000202039, Final residual = 1.93063e-06, No Iterations 130
time step continuity errors : sum local = 3.24822e-11, global = 8.69736e-21, cumulative = 4.19124e-16
DICPCG:  Solving for p, Initial residual = 2.78179e-06, Final residual = 9.61847e-07, No Iterations 6
time step continuity errors : sum local = 1.74321e-11, global = -1.48295e-20, cumulative = 4.1911e-16
ExecutionTime = 4.12 s  ClockTime = 4 s

scalarTransport execute: s
DILUPBiCGStab:  Solving for s, Initial residual = 0.00147149, Final residual = 5.58908e-09, No Iterations 2
DILUPBiCGStab:  Solving for s, Initial residual = 2.37465e-05, Final residual = 2.9791e-10, No Iterations 1

Courant Number mean: 0.10344 max: 0.376689
deltaT = 0.00166667
Time = 0.0833333

PIMPLE: iteration 1
smoothSolver:  Solving for Ux, Initial residual = 6.65302e-05, Final residual = 2.78882e-07, No Iterations 1
smoothSolver:  Solving for Uy, Initial residual = 6.58257e-05, Final residual = 2.79951e-07, No Iterations 1
DICPCG:  Solving for p, Initial residual = 0.000297164, Final residual = 2.92044e-06, No Iterations 138
time step continuity errors : sum local = 5.03978e-11, global = 3.37278e-21, cumulative = 4.19113e-16
DICPCG:  Solving for p, Initial residual = 6.76826e-05, Final residual = 9.88321e-07, No Iterations 227
time step continuity errors : sum local = 1.544e-11, global = -1.53403e-21, cumulative = 4.19111e-16
PIMPLE: iteration 2
smoothSolver:  Solving for Ux, Initial residual = 2.36844e-07, Final residual = 2.36844e-07, No Iterations 0
smoothSolver:  Solving for Uy, Initial residual = 2.27563e-07, Final residual = 2.27563e-07, No Iterations 0
DICPCG:  Solving for p, Initial residual = 0.000202056, Final residual = 1.94206e-06, No Iterations 130
time step continuity errors : sum local = 3.26758e-11, global = -4.62715e-20, cumulative = 4.19065e-16
DICPCG:  Solving for p, Initial residual = 2.79454e-06, Final residual = 9.66068e-07, No Iterations 6
time step continuity errors : sum local = 1.75119e-11, global = 1.18766e-20, cumulative = 4.19077e-16
ExecutionTime = 4.2 s  ClockTime = 4 s

scalarTransport execute: s
DILUPBiCGStab:  Solving for s, Initial residual = 0.00147159, Final residual = 6.78142e-09, No Iterations 2
DILUPBiCGStab:  Solving for s, Initial residual = 2.39924e-05, Final residual = 3.63035e-10, No Iterations 1

Courant Number mean: 0.103441 max: 0.376688
deltaT = 0.00166667
Time = 0.085

PIMPLE: iteration 1
smoothSolver:  Solving for Ux, Initial residual = 6.6535e-05, Final residual = 2.78923e-07, No Iterations 1
smoothSolver:  Solving for Uy, Initial residual = 6.58277e-05, Final residual = 2.79931e-07, No Iterations 1
DICPCG:  Solving for p, Initial residual = 0.000307526, Final residual = 3.04342e-06, No Iterations 137
time step continuity errors : sum local = 5.24386e-11, global = 1.15229e-20, cumulative = 4.19089e-16
DICPCG:  Solving for p, Initial residual = 6.85028e-05, Final residual = 9.95577e-07, No Iterations 220
time step continuity errors : sum local = 1.55453e-11, global = 1.6391e-20, cumulative = 4.19105e-16
PIMPLE: iteration 2
smoothSolver:  Solving for Ux, Initial residual = 2.3684e-07, Final residual = 2.3684e-07, No Iterations 0
smoothSolver:  Solving for Uy, Initial residual = 2.27605e-07, Final residual = 2.27605e-07, No Iterations 0
DICPCG:  Solving for p, Initial residual = 0.000202103, Final residual = 1.94729e-06, No Iterations 130
time step continuity errors : sum local = 3.27619e-11, global = -4.36332e-20, cumulative = 4.19061e-16
DICPCG:  Solving for p, Initial residual = 2.80791e-06, Final residual = 9.75549e-07, No Iterations 6
time step continuity errors : sum local = 1.7663e-11, global = -4.98444e-20, cumulative = 4.19012e-16
ExecutionTime = 4.28 s  ClockTime = 4 s

scalarTransport execute: s
DILUPBiCGStab:  Solving for s, Initial residual = 0.00147169, Final residual = 8.17363e-09, No Iterations 2
DILUPBiCGStab:  Solving for s, Initial residual = 2.4071e-05, Final residual = 4.29403e-10, No Iterations 1

Courant Number mean: 0.103441 max: 0.376688
deltaT = 0.00166667
Time = 0.0866667

PIMPLE: iteration 1
smoothSolver:  Solving for Ux, Initial residual = 6.65391e-05, Final residual = 2.7896e-07, No Iterations 1
smoothSolver:  Solving for Uy, Initial residual = 6.58293e-05, Final residual = 2.79908e-07, No Iterations 1
DICPCG:  Solving for p, Initial residual = 0.000334506, Final residual = 3.32035e-06, No Iterations 132
time step continuity errors : sum local = 5.68226e-11, global = -6.7651e-21, cumulative = 4.19005e-16
DICPCG:  Solving for p, Initial residual = 7.00061e-05, Final residual = 9.82998e-07, No Iterations 224
time step continuity errors : sum local = 1.53396e-11, global = -1.39795e-21, cumulative = 4.19003e-16
PIMPLE: iteration 2
smoothSolver:  Solving for Ux, Initial residual = 2.36833e-07, Final residual = 2.36833e-07, No Iterations 0
smoothSolver:  Solving for Uy, Initial residual = 2.27649e-07, Final residual = 2.27649e-07, No Iterations 0
DICPCG:  Solving for p, Initial residual = 0.000202099, Final residual = 1.93961e-06, No Iterations 130
time step continuity errors : sum local = 3.26472e-11, global = -6.20953e-20, cumulative = 4.18941e-16
DICPCG:  Solving for p, Initial residual = 2.80057e-06, Final residual = 9.68362e-07, No Iterations 6
time step continuity errors : sum local = 1.75548e-11, global = -8.75524e-21, cumulative = 4.18933e-16
ExecutionTime = 4.36 s  ClockTime = 4 s

scalarTransport execute: s
DILUPBiCGStab:  Solving for s, Initial residual = 0.00147177, Final residual = 9.81187e-09, No Iterations 2
DILUPBiCGStab:  Solving for s, Initial residual = 2.37622e-05, Final residual = 4.85097e-10, No Iterations 1

Courant Number mean: 0.103442 max: 0.376687
deltaT = 0.00166667
Time = 0.0883333

PIMPLE: iteration 1
smoothSolver:  Solving for Ux, Initial residual = 6.65418e-05, Final residual = 2.78979e-07, No Iterations 1
smoothSolver:  Solving for Uy, Initial residual = 6.58315e-05, Final residual = 2.79888e-07, No Iterations 1
DICPCG:  Solving for p, Initial residual = 0.000310794, Final residual = 3.04547e-06, No Iterations 137
time step continuity errors : sum local = 5.23868e-11, global = -5.1621e-21, cumulative = 4.18927e-16
DICPCG:  Solving for p, Initial residual = 6.8423e-05, Final residual = 9.9058e-07, No Iterations 226
time step continuity errors : sum local = 1.54938e-11, global = -1.26967e-20, cumulative = 4.18915e-16
PIMPLE: iteration 2
smoothSolver:  Solving for Ux, Initial residual = 2.36819e-07, Final residual = 2.36819e-07, No Iterations 0
smoothSolver:  Solving for Uy, Initial residual = 2.27693e-07, Final residual = 2.27693e-07, No Iterations 0
DICPCG:  Solving for p, Initial residual = 0.00020209, Final residual = 1.94324e-06, No Iterations 130
time step continuity errors : sum local = 3.27209e-11, global = 4.65784e-21, cumulative = 4.18919e-16
DICPCG:  Solving for p, Initial residual = 2.79763e-06, Final residual = 9.7401e-07, No Iterations 6
time step continuity errors : sum local = 1.76581e-11, global = 7.78249e-21, cumulative = 4.18927e-16
ExecutionTime = 4.44 s  ClockTime = 4 s

scalarTransport execute: s
DILUPBiCGStab:  Solving for s, Initial residual = 0.00147185, Final residual = 1.77706e-09, No Iterations 2
DILUPBiCGStab:  Solving for s, Initial residual = 2.22794e-05, Final residual = 9.62661e-11, No Iterations 1

Courant Number mean: 0.103443 max: 0.376687
deltaT = 0.00166667
Time = 0.09

PIMPLE: iteration 1
smoothSolver:  Solving for Ux, Initial residual = 6.65455e-05, Final residual = 2.79014e-07, No Iterations 1
smoothSolver:  Solving for Uy, Initial residual = 6.58324e-05, Final residual = 2.79862e-07, No Iterations 1
DICPCG:  Solving for p, Initial residual = 0.00029526, Final residual = 2.91043e-06, No Iterations 139
time step continuity errors : sum local = 5.04594e-11, global = -5.11425e-20, cumulative = 4.18876e-16
DICPCG:  Solving for p, Initial residual = 6.85341e-05, Final residual = 9.72621e-07, No Iterations 228
time step continuity errors : sum local = 1.52286e-11, global = 8.21755e-21, cumulative = 4.18884e-16
PIMPLE: iteration 2
smoothSolver:  Solving for Ux, Initial residual = 2.36806e-07, Final residual = 2.36806e-07, No Iterations 0
smoothSolver:  Solving for Uy, Initial residual = 2.27741e-07, Final residual = 2.27741e-07, No Iterations 0
DICPCG:  Solving for p, Initial residual = 0.000202103, Final residual = 1.94261e-06, No Iterations 130
time step continuity errors : sum local = 3.27158e-11, global = -1.59086e-20, cumulative = 4.18868e-16
DICPCG:  Solving for p, Initial residual = 2.79795e-06, Final residual = 9.72769e-07, No Iterations 6
time step continuity errors : sum local = 1.76421e-11, global = 2.29213e-20, cumulative = 4.18891e-16
ExecutionTime = 4.55 s  ClockTime = 4 s

scalarTransport execute: s
DILUPBiCGStab:  Solving for s, Initial residual = 0.00147193, Final residual = 2.11808e-09, No Iterations 2
DILUPBiCGStab:  Solving for s, Initial residual = 2.1538e-05, Final residual = 1.18604e-10, No Iterations 1

Courant Number mean: 0.103443 max: 0.376686
deltaT = 0.00166667
Time = 0.0916667

PIMPLE: iteration 1
smoothSolver:  Solving for Ux, Initial residual = 6.65487e-05, Final residual = 2.7905e-07, No Iterations 1
smoothSolver:  Solving for Uy, Initial residual = 6.5834e-05, Final residual = 2.79834e-07, No Iterations 1
DICPCG:  Solving for p, Initial residual = 0.000290301, Final residual = 2.83044e-06, No Iterations 139
time step continuity errors : sum local = 4.91463e-11, global = -3.89697e-21, cumulative = 4.18887e-16
DICPCG:  Solving for p, Initial residual = 6.84129e-05, Final residual = 9.91052e-07, No Iterations 225
time step continuity errors : sum local = 1.54944e-11, global = 1.26382e-20, cumulative = 4.189e-16
PIMPLE: iteration 2
smoothSolver:  Solving for Ux, Initial residual = 2.36797e-07, Final residual = 2.36797e-07, No Iterations 0
smoothSolver:  Solving for Uy, Initial residual = 2.27784e-07, Final residual = 2.27784e-07, No Iterations 0
DICPCG:  Solving for p, Initial residual = 0.0002021, Final residual = 1.95388e-06, No Iterations 130
time step continuity errors : sum local = 3.29019e-11, global = -2.6972e-20, cumulative = 4.18873e-16
DICPCG:  Solving for p, Initial residual = 2.81103e-06, Final residual = 9.78181e-07, No Iterations 6
time step continuity errors : sum local = 1.77361e-11, global = 1.94904e-20, cumulative = 4.18892e-16
ExecutionTime = 4.63 s  ClockTime = 4 s

scalarTransport execute: s
DILUPBiCGStab:  Solving for s, Initial residual = 0.00147201, Final residual = 2.50311e-09, No Iterations 2
DILUPBiCGStab:  Solving for s, Initial residual = 2.22763e-05, Final residual = 1.41087e-10, No Iterations 1

Courant Number mean: 0.103444 max: 0.376686
deltaT = 0.00166667
Time = 0.0933333

PIMPLE: iteration 1
smoothSolver:  Solving for Ux, Initial residual = 6.65517e-05, Final residual = 2.79089e-07, No Iterations 1
smoothSolver:  Solving for Uy, Initial residual = 6.58356e-05, Final residual = 2.79805e-07, No Iterations 1
DICPCG:  Solving for p, Initial residual = 0.000289128, Final residual = 2.79199e-06, No Iterations 139
time step continuity errors : sum local = 4.85759e-11, global = 2.58153e-20, cumulative = 4.18918e-16
DICPCG:  Solving for p, Initial residual = 6.86218e-05, Final residual = 9.74678e-07, No Iterations 222
time step continuity errors : sum local = 1.52249e-11, global = -9.47833e-21, cumulative = 4.18909e-16
PIMPLE: iteration 2
smoothSolver:  Solving for Ux, Initial residual = 2.36785e-07, Final residual = 2.36785e-07, No Iterations 0
smoothSolver:  Solving for Uy, Initial residual = 2.27826e-07, Final residual = 2.27826e-07, No Iterations 0
DICPCG:  Solving for p, Initial residual = 0.000202137, Final residual = 1.96298e-06, No Iterations 130
time step continuity errors : sum local = 3.30512e-11, global = 5.69001e-20, cumulative = 4.18966e-16
DICPCG:  Solving for p, Initial residual = 2.8185e-06, Final residual = 9.82881e-07, No Iterations 6
time step continuity errors : sum local = 1.78163e-11, global = -3.98892e-20, cumulative = 4.18926e-16
ExecutionTime = 4.71 s  ClockTime = 4 s

scalarTransport execute: s
DILUPBiCGStab:  Solving for s, Initial residual = 0.00147211, Final residual = 2.93199e-09, No Iterations 2
DILUPBiCGStab:  Solving for s, Initial residual = 2.04255e-05, Final residual = 1.72911e-10, No Iterations 1

Courant Number mean: 0.103445 max: 0.376686
deltaT = 0.00166667
Time = 0.095

PIMPLE: iteration 1
smoothSolver:  Solving for Ux, Initial residual = 6.65546e-05, Final residual = 2.79122e-07, No Iterations 1
smoothSolver:  Solving for Uy, Initial residual = 6.58374e-05, Final residual = 2.79786e-07, No Iterations 1
DICPCG:  Solving for p, Initial residual = 0.000292633, Final residual = 2.9254e-06, No Iterations 140
time step continuity errors : sum local = 5.06416e-11, global = 1.80379e-20, cumulative = 4.18944e-16
DICPCG:  Solving for p, Initial residual = 6.87095e-05, Final residual = 9.71575e-07, No Iterations 226
time step continuity errors : sum local = 1.51981e-11, global = 1.66982e-20, cumulative = 4.18961e-16
PIMPLE: iteration 2
smoothSolver:  Solving for Ux, Initial residual = 2.36768e-07, Final residual = 2.36768e-07, No Iterations 0
smoothSolver:  Solving for Uy, Initial residual = 2.27867e-07, Final residual = 2.27867e-07, No Iterations 0
DICPCG:  Solving for p, Initial residual = 0.000202147, Final residual = 1.95608e-06, No Iterations 130
time step continuity errors : sum local = 3.29545e-11, global = -2.69286e-20, cumulative = 4.18934e-16
DICPCG:  Solving for p, Initial residual = 2.81566e-06, Final residual = 9.81664e-07, No Iterations 6
time step continuity errors : sum local = 1.78065e-11, global = -9.06516e-21, cumulative = 4.18925e-16
ExecutionTime = 4.79 s  ClockTime = 5 s

scalarTransport execute: s
DILUPBiCGStab:  Solving for s, Initial residual = 0.0014722, Final residual = 3.40381e-09, No Iterations 2
DILUPBiCGStab:  Solving for s, Initial residual = 2.22559e-05, Final residual = 2.0398e-10, No Iterations 1

Courant Number mean: 0.103445 max: 0.376685
deltaT = 0.00166667
Time = 0.0966667

PIMPLE: iteration 1
smoothSolver:  Solving for Ux, Initial residual = 6.6558e-05, Final residual = 2.79156e-07, No Iterations 1
smoothSolver:  Solving for Uy, Initial residual = 6.58392e-05, Final residual = 2.79767e-07, No Iterations 1
DICPCG:  Solving for p, Initial residual = 0.000295048, Final residual = 2.94454e-06, No Iterations 139
time step continuity errors : sum local = 5.09961e-11, global = -1.60079e-20, cumulative = 4.18909e-16
DICPCG:  Solving for p, Initial residual = 6.89036e-05, Final residual = 9.91166e-07, No Iterations 223
time step continuity errors : sum local = 1.54895e-11, global = -2.02404e-21, cumulative = 4.18907e-16
PIMPLE: iteration 2
smoothSolver:  Solving for Ux, Initial residual = 2.36758e-07, Final residual = 2.36758e-07, No Iterations 0
smoothSolver:  Solving for Uy, Initial residual = 2.2791e-07, Final residual = 2.2791e-07, No Iterations 0
DICPCG:  Solving for p, Initial residual = 0.000202215, Final residual = 1.96298e-06, No Iterations 130
time step continuity errors : sum local = 3.30683e-11, global = 4.26753e-20, cumulative = 4.18949e-16
DICPCG:  Solving for p, Initial residual = 2.82741e-06, Final residual = 9.8639e-07, No Iterations 6
time step continuity errors : sum local = 1.78856e-11, global = 3.13538e-20, cumulative = 4.18981e-16
ExecutionTime = 4.87 s  ClockTime = 5 s

scalarTransport execute: s
DILUPBiCGStab:  Solving for s, Initial residual = 0.00147228, Final residual = 3.91648e-09, No Iterations 2
DILUPBiCGStab:  Solving for s, Initial residual = 2.29156e-05, Final residual = 2.33293e-10, No Iterations 1

Courant Number mean: 0.103446 max: 0.376685
deltaT = 0.00166667
Time = 0.0983333

PIMPLE: iteration 1
smoothSolver:  Solving for Ux, Initial residual = 6.6562e-05, Final residual = 2.79194e-07, No Iterations 1
smoothSolver:  Solving for Uy, Initial residual = 6.58401e-05, Final residual = 2.7975e-07, No Iterations 1
DICPCG:  Solving for p, Initial residual = 0.000314584, Final residual = 3.13907e-06, No Iterations 140
time step continuity errors : sum local = 5.41715e-11, global = -1.40012e-20, cumulative = 4.18967e-16
DICPCG:  Solving for p, Initial residual = 7.03931e-05, Final residual = 9.78312e-07, No Iterations 229
time step continuity errors : sum local = 1.52928e-11, global = 3.01778e-20, cumulative = 4.18997e-16
PIMPLE: iteration 2
smoothSolver:  Solving for Ux, Initial residual = 2.36751e-07, Final residual = 2.36751e-07, No Iterations 0
smoothSolver:  Solving for Uy, Initial residual = 2.27953e-07, Final residual = 2.27953e-07, No Iterations 0
DICPCG:  Solving for p, Initial residual = 0.000202203, Final residual = 1.96424e-06, No Iterations 130
time step continuity errors : sum local = 3.30934e-11, global = 4.98311e-20, cumulative = 4.19047e-16
DICPCG:  Solving for p, Initial residual = 2.83138e-06, Final residual = 9.81137e-07, No Iterations 6
time step continuity errors : sum local = 1.78092e-11, global = 4.94338e-20, cumulative = 4.19096e-16
ExecutionTime = 4.95 s  ClockTime = 5 s

scalarTransport execute: s
DILUPBiCGStab:  Solving for s, Initial residual = 0.00147236, Final residual = 4.46648e-09, No Iterations 2
DILUPBiCGStab:  Solving for s, Initial residual = 2.19422e-05, Final residual = 2.66353e-10, No Iterations 1

Courant Number mean: 0.103447 max: 0.376685
deltaT = 0.00166667
Time = 0.1

PIMPLE: iteration 1
smoothSolver:  Solving for Ux, Initial residual = 6.6566e-05, Final residual = 2.79237e-07, No Iterations 1
smoothSolver:  Solving for Uy, Initial residual = 6.58417e-05, Final residual = 2.79738e-07, No Iterations 1
DICPCG:  Solving for p, Initial residual = 0.000304764, Final residual = 3.01191e-06, No Iterations 137
time step continuity errors : sum local = 5.19802e-11, global = 5.66555e-20, cumulative = 4.19153e-16
DICPCG:  Solving for p, Initial residual = 7.04962e-05, Final residual = 9.78059e-07, No Iterations 229
time step continuity errors : sum local = 1.52871e-11, global = 1.86479e-20, cumulative = 4.19171e-16
PIMPLE: iteration 2
smoothSolver:  Solving for Ux, Initial residual = 2.3675e-07, Final residual = 2.3675e-07, No Iterations 0
smoothSolver:  Solving for Uy, Initial residual = 2.27984e-07, Final residual = 2.27984e-07, No Iterations 0
DICPCG:  Solving for p, Initial residual = 0.00020221, Final residual = 1.96953e-06, No Iterations 130
time step continuity errors : sum local = 3.31915e-11, global = -1.73645e-20, cumulative = 4.19154e-16
DICPCG:  Solving for p, Initial residual = 2.83496e-06, Final residual = 9.83385e-07, No Iterations 6
time step continuity errors : sum local = 1.78591e-11, global = 1.64621e-20, cumulative = 4.1917e-16
ExecutionTime = 5.05 s  ClockTime = 5 s

scalarTransport execute: s
DILUPBiCGStab:  Solving for s, Initial residual = 0.00147244, Final residual = 5.04878e-09, No Iterations 2
DILUPBiCGStab:  Solving for s, Initial residual = 1.96668e-05, Final residual = 2.87283e-10, No Iterations 1

End

Finalising parallel run
