/*---------------------------------------------------------------------------*\
| =========                 |                                                 |
| \\      /  F ield         | OpenFOAM: The Open Source CFD Toolbox           |
|  \\    /   O peration     | Version:  2206                                  |
|   \\  /    A nd           | Website:  www.openfoam.com                      |
|    \\/     M anipulation  |                                                 |
\*---------------------------------------------------------------------------*/
Build  : _76d719d1-20220624 OPENFOAM=2206 version=v2206
Arch   : "LSB;label=64;scalar=64"
Exec   : foamToVTK
Date   : Sep 20 2023
Time   : 14:46:00
Host   : DESKTOP-BTFG136
PID    : 3084
I/O    : uncollated
Case   : /home/noreff/works/OpenFOAM-user/v2206/Projects/validatioin_CHAD/scalar_noDiff
nProcs : 1
trapFpe: Floating point exception trapping enabled (FOAM_SIGFPE).
fileModificationChecking : Monitoring run-time modified files using timeStampMaster (fileModificationSkew 5, maxFileModificationPolls 20)
allowSystemOperations : Allowing user-supplied system call operations

// * * * * * * * * * * * * * * * * * * * * * * * * * * * * * * * * * * * * * //
Create time

--> FOAM Warning : 
    From void Foam::Time::setControls()
    in file db/Time/Time.C at line 335
    Reading "0/uniform/time" at line 19 to 27
    Time read from time dictionary 45 differs from actual time 0.
    This may cause unexpected database behaviour. If you are not interested
    in preserving time state delete the time dictionary.
Initial memory 179688 kB
Create mesh for time = 0

VTK mesh topology: 0.17 s, 215528 kB
Time: 0
    volScalar    : nut p s
    volVector    : U
    Internal  : "VTK/scalar_noDiff_50656/internal.vtu"
    Boundary  : "VTK/scalar_noDiff_50656/boundary/movingWall.vtp"
    Boundary  : "VTK/scalar_noDiff_50656/boundary/fixedWalls.vtp"
Wrote in 0.29 s, 254320 kB
Time: 0.01
    volScalar    : nut p
    volVector    : U
    Internal  : "VTK/scalar_noDiff_50662/internal.vtu"
    Boundary  : "VTK/scalar_noDiff_50662/boundary/movingWall.vtp"
    Boundary  : "VTK/scalar_noDiff_50662/boundary/fixedWalls.vtp"
Wrote in 0.17 s, 267004 kB
Time: 0.02
    volScalar    : nut p
    volVector    : U
    Internal  : "VTK/scalar_noDiff_50668/internal.vtu"
    Boundary  : "VTK/scalar_noDiff_50668/boundary/movingWall.vtp"
    Boundary  : "VTK/scalar_noDiff_50668/boundary/fixedWalls.vtp"
Wrote in 0.16 s, 267008 kB
Time: 0.03
    volScalar    : nut p
    volVector    : U
    Internal  : "VTK/scalar_noDiff_50674/internal.vtu"
    Boundary  : "VTK/scalar_noDiff_50674/boundary/movingWall.vtp"
    Boundary  : "VTK/scalar_noDiff_50674/boundary/fixedWalls.vtp"
Wrote in 0.17 s, 267008 kB
Time: 0.04
    volScalar    : nut p
    volVector    : U
    Internal  : "VTK/scalar_noDiff_50680/internal.vtu"
    Boundary  : "VTK/scalar_noDiff_50680/boundary/movingWall.vtp"
    Boundary  : "VTK/scalar_noDiff_50680/boundary/fixedWalls.vtp"
Wrote in 0.17 s, 267008 kB
Time: 0.05
    volScalar    : nut p
    volVector    : U
    Internal  : "VTK/scalar_noDiff_50686/internal.vtu"
    Boundary  : "VTK/scalar_noDiff_50686/boundary/movingWall.vtp"
    Boundary  : "VTK/scalar_noDiff_50686/boundary/fixedWalls.vtp"
Wrote in 0.17 s, 267008 kB
Time: 0.06
    volScalar    : nut p
    volVector    : U
    Internal  : "VTK/scalar_noDiff_50692/internal.vtu"
    Boundary  : "VTK/scalar_noDiff_50692/boundary/movingWall.vtp"
    Boundary  : "VTK/scalar_noDiff_50692/boundary/fixedWalls.vtp"
Wrote in 0.18 s, 267008 kB
Time: 0.07
    volScalar    : nut p
    volVector    : U
    Internal  : "VTK/scalar_noDiff_50698/internal.vtu"
    Boundary  : "VTK/scalar_noDiff_50698/boundary/movingWall.vtp"
    Boundary  : "VTK/scalar_noDiff_50698/boundary/fixedWalls.vtp"
Wrote in 0.17 s, 267008 kB
Time: 0.08
    volScalar    : nut p
    volVector    : U
    Internal  : "VTK/scalar_noDiff_50704/internal.vtu"
    Boundary  : "VTK/scalar_noDiff_50704/boundary/movingWall.vtp"
    Boundary  : "VTK/scalar_noDiff_50704/boundary/fixedWalls.vtp"
Wrote in 0.17 s, 267008 kB
Time: 0.09
    volScalar    : nut p
    volVector    : U
    Internal  : "VTK/scalar_noDiff_50710/internal.vtu"
    Boundary  : "VTK/scalar_noDiff_50710/boundary/movingWall.vtp"
    Boundary  : "VTK/scalar_noDiff_50710/boundary/fixedWalls.vtp"
Wrote in 0.17 s, 267008 kB
Time: 0.1
    volScalar    : nut p
    volVector    : U
    Internal  : "VTK/scalar_noDiff_50716/internal.vtu"
    Boundary  : "VTK/scalar_noDiff_50716/boundary/movingWall.vtp"
    Boundary  : "VTK/scalar_noDiff_50716/boundary/fixedWalls.vtp"
Wrote in 0.17 s, 267008 kB

End: 2.16 s, 283584 kB (peak)

