/*---------------------------------------------------------------------------*\
| =========                 |                                                 |
| \\      /  F ield         | OpenFOAM: The Open Source CFD Toolbox           |
|  \\    /   O peration     | Version:  2206                                  |
|   \\  /    A nd           | Website:  www.openfoam.com                      |
|    \\/     M anipulation  |                                                 |
\*---------------------------------------------------------------------------*/
Build  : _76d719d1-20220624 OPENFOAM=2206 version=v2206
Arch   : "LSB;label=64;scalar=64"
Exec   : foamToVTK
Date   : Feb 16 2023
Time   : 10:38:10
Host   : DESKTOP-BTFG136
PID    : 8388
I/O    : uncollated
Case   : /home/noreff/works/OpenFOAM-2206-user/Projects/CHADvalidation/cavity/cavity_piso_Smag
nProcs : 1
trapFpe: Floating point exception trapping enabled (FOAM_SIGFPE).
fileModificationChecking : Monitoring run-time modified files using timeStampMaster (fileModificationSkew 5, maxFileModificationPolls 20)
allowSystemOperations : Allowing user-supplied system call operations

// * * * * * * * * * * * * * * * * * * * * * * * * * * * * * * * * * * * * * //
Create time

Initial memory 179712 kB
Create mesh for time = 0

VTK mesh topology: 0.02 s, 195440 kB
Time: 0
    volScalar    : k nuTilda nut p s
    volVector    : U
    Internal  : "VTK/cavity_piso_Smag_0/internal.vtu"
    Boundary  : "VTK/cavity_piso_Smag_0/boundary/movingWall.vtp"
    Boundary  : "VTK/cavity_piso_Smag_0/boundary/fixedWalls.vtp"
Wrote in 0.13 s, 215828 kB
Time: 1
    volScalar    : nut p yPlus
    volVector    : U
    volSymTensor : turbulenceProperties:R
    Internal  : "VTK/cavity_piso_Smag_476/internal.vtu"
    Boundary  : "VTK/cavity_piso_Smag_476/boundary/movingWall.vtp"
    Boundary  : "VTK/cavity_piso_Smag_476/boundary/fixedWalls.vtp"
Wrote in 0.08 s, 216004 kB
Time: 2
    volScalar    : nut p yPlus
    volVector    : U
    volSymTensor : turbulenceProperties:R
    Internal  : "VTK/cavity_piso_Smag_940/internal.vtu"
    Boundary  : "VTK/cavity_piso_Smag_940/boundary/movingWall.vtp"
    Boundary  : "VTK/cavity_piso_Smag_940/boundary/fixedWalls.vtp"
Wrote in 0.09 s, 216004 kB
Time: 3
    volScalar    : nut p yPlus
    volVector    : U
    volSymTensor : turbulenceProperties:R
    Internal  : "VTK/cavity_piso_Smag_1401/internal.vtu"
    Boundary  : "VTK/cavity_piso_Smag_1401/boundary/movingWall.vtp"
    Boundary  : "VTK/cavity_piso_Smag_1401/boundary/fixedWalls.vtp"
Wrote in 0.09 s, 216008 kB
Time: 4
    volScalar    : nut p yPlus
    volVector    : U
    volSymTensor : turbulenceProperties:R
    Internal  : "VTK/cavity_piso_Smag_1862/internal.vtu"
    Boundary  : "VTK/cavity_piso_Smag_1862/boundary/movingWall.vtp"
    Boundary  : "VTK/cavity_piso_Smag_1862/boundary/fixedWalls.vtp"
Wrote in 0.1 s, 216008 kB
Time: 5
    volScalar    : nut p yPlus
    volVector    : U
    volSymTensor : turbulenceProperties:R
    Internal  : "VTK/cavity_piso_Smag_2323/internal.vtu"
    Boundary  : "VTK/cavity_piso_Smag_2323/boundary/movingWall.vtp"
    Boundary  : "VTK/cavity_piso_Smag_2323/boundary/fixedWalls.vtp"
Wrote in 0.08 s, 216008 kB
Time: 6
    volScalar    : nut p yPlus
    volVector    : U
    volSymTensor : turbulenceProperties:R
    Internal  : "VTK/cavity_piso_Smag_2784/internal.vtu"
    Boundary  : "VTK/cavity_piso_Smag_2784/boundary/movingWall.vtp"
    Boundary  : "VTK/cavity_piso_Smag_2784/boundary/fixedWalls.vtp"
Wrote in 0.08 s, 216008 kB
Time: 7
    volScalar    : nut p yPlus
    volVector    : U
    volSymTensor : turbulenceProperties:R
    Internal  : "VTK/cavity_piso_Smag_3245/internal.vtu"
    Boundary  : "VTK/cavity_piso_Smag_3245/boundary/movingWall.vtp"
    Boundary  : "VTK/cavity_piso_Smag_3245/boundary/fixedWalls.vtp"
Wrote in 0.09 s, 216008 kB
Time: 8
    volScalar    : nut p yPlus
    volVector    : U
    volSymTensor : turbulenceProperties:R
    Internal  : "VTK/cavity_piso_Smag_3706/internal.vtu"
    Boundary  : "VTK/cavity_piso_Smag_3706/boundary/movingWall.vtp"
    Boundary  : "VTK/cavity_piso_Smag_3706/boundary/fixedWalls.vtp"
Wrote in 0.08 s, 216012 kB
Time: 9
    volScalar    : nut p yPlus
    volVector    : U
    volSymTensor : turbulenceProperties:R
    Internal  : "VTK/cavity_piso_Smag_4167/internal.vtu"
    Boundary  : "VTK/cavity_piso_Smag_4167/boundary/movingWall.vtp"
    Boundary  : "VTK/cavity_piso_Smag_4167/boundary/fixedWalls.vtp"
Wrote in 0.09 s, 216012 kB
Time: 10
    volScalar    : nut p yPlus
    volVector    : U
    volSymTensor : turbulenceProperties:R
    Internal  : "VTK/cavity_piso_Smag_4628/internal.vtu"
    Boundary  : "VTK/cavity_piso_Smag_4628/boundary/movingWall.vtp"
    Boundary  : "VTK/cavity_piso_Smag_4628/boundary/fixedWalls.vtp"
Wrote in 0.07 s, 216012 kB
Time: 11
    volScalar    : nut p yPlus
    volVector    : U
    volSymTensor : turbulenceProperties:R
    Internal  : "VTK/cavity_piso_Smag_5089/internal.vtu"
    Boundary  : "VTK/cavity_piso_Smag_5089/boundary/movingWall.vtp"
    Boundary  : "VTK/cavity_piso_Smag_5089/boundary/fixedWalls.vtp"
Wrote in 0.08 s, 216012 kB
Time: 12
    volScalar    : nut p yPlus
    volVector    : U
    volSymTensor : turbulenceProperties:R
    Internal  : "VTK/cavity_piso_Smag_5550/internal.vtu"
    Boundary  : "VTK/cavity_piso_Smag_5550/boundary/movingWall.vtp"
    Boundary  : "VTK/cavity_piso_Smag_5550/boundary/fixedWalls.vtp"
Wrote in 0.06 s, 216012 kB
Time: 13
    volScalar    : nut p yPlus
    volVector    : U
    volSymTensor : turbulenceProperties:R
    Internal  : "VTK/cavity_piso_Smag_6011/internal.vtu"
    Boundary  : "VTK/cavity_piso_Smag_6011/boundary/movingWall.vtp"
    Boundary  : "VTK/cavity_piso_Smag_6011/boundary/fixedWalls.vtp"
Wrote in 0.09 s, 216012 kB
Time: 14
    volScalar    : nut p yPlus
    volVector    : U
    volSymTensor : turbulenceProperties:R
    Internal  : "VTK/cavity_piso_Smag_6472/internal.vtu"
    Boundary  : "VTK/cavity_piso_Smag_6472/boundary/movingWall.vtp"
    Boundary  : "VTK/cavity_piso_Smag_6472/boundary/fixedWalls.vtp"
Wrote in 0.08 s, 216012 kB
Time: 15
    volScalar    : nut p yPlus
    volVector    : U
    volSymTensor : turbulenceProperties:R
    Internal  : "VTK/cavity_piso_Smag_6933/internal.vtu"
    Boundary  : "VTK/cavity_piso_Smag_6933/boundary/movingWall.vtp"
    Boundary  : "VTK/cavity_piso_Smag_6933/boundary/fixedWalls.vtp"
Wrote in 0.08 s, 216368 kB
Time: 16
    volScalar    : nut p yPlus
    volVector    : U
    volSymTensor : turbulenceProperties:R
    Internal  : "VTK/cavity_piso_Smag_7394/internal.vtu"
    Boundary  : "VTK/cavity_piso_Smag_7394/boundary/movingWall.vtp"
    Boundary  : "VTK/cavity_piso_Smag_7394/boundary/fixedWalls.vtp"
Wrote in 0.07 s, 216364 kB
Time: 17
    volScalar    : nut p yPlus
    volVector    : U
    volSymTensor : turbulenceProperties:R
    Internal  : "VTK/cavity_piso_Smag_7855/internal.vtu"
    Boundary  : "VTK/cavity_piso_Smag_7855/boundary/movingWall.vtp"
    Boundary  : "VTK/cavity_piso_Smag_7855/boundary/fixedWalls.vtp"
Wrote in 0.07 s, 216364 kB
Time: 18
    volScalar    : nut p yPlus
    volVector    : U
    volSymTensor : turbulenceProperties:R
    Internal  : "VTK/cavity_piso_Smag_8315/internal.vtu"
    Boundary  : "VTK/cavity_piso_Smag_8315/boundary/movingWall.vtp"
    Boundary  : "VTK/cavity_piso_Smag_8315/boundary/fixedWalls.vtp"
Wrote in 0.09 s, 216364 kB
Time: 19
    volScalar    : nut p yPlus
    volVector    : U
    volSymTensor : turbulenceProperties:R
    Internal  : "VTK/cavity_piso_Smag_8775/internal.vtu"
    Boundary  : "VTK/cavity_piso_Smag_8775/boundary/movingWall.vtp"
    Boundary  : "VTK/cavity_piso_Smag_8775/boundary/fixedWalls.vtp"
Wrote in 0.08 s, 216364 kB
Time: 20
    volScalar    : nut p yPlus
    volVector    : U
    volSymTensor : turbulenceProperties:R
    Internal  : "VTK/cavity_piso_Smag_9235/internal.vtu"
    Boundary  : "VTK/cavity_piso_Smag_9235/boundary/movingWall.vtp"
    Boundary  : "VTK/cavity_piso_Smag_9235/boundary/fixedWalls.vtp"
Wrote in 0.07 s, 216364 kB
Time: 21
    volScalar    : nut p yPlus
    volVector    : U
    volSymTensor : turbulenceProperties:R
    Internal  : "VTK/cavity_piso_Smag_9695/internal.vtu"
    Boundary  : "VTK/cavity_piso_Smag_9695/boundary/movingWall.vtp"
    Boundary  : "VTK/cavity_piso_Smag_9695/boundary/fixedWalls.vtp"
Wrote in 0.08 s, 216364 kB
Time: 22
    volScalar    : nut p yPlus
    volVector    : U
    volSymTensor : turbulenceProperties:R
    Internal  : "VTK/cavity_piso_Smag_10155/internal.vtu"
    Boundary  : "VTK/cavity_piso_Smag_10155/boundary/movingWall.vtp"
    Boundary  : "VTK/cavity_piso_Smag_10155/boundary/fixedWalls.vtp"
Wrote in 0.06 s, 216364 kB
Time: 23
    volScalar    : nut p yPlus
    volVector    : U
    volSymTensor : turbulenceProperties:R
    Internal  : "VTK/cavity_piso_Smag_10616/internal.vtu"
    Boundary  : "VTK/cavity_piso_Smag_10616/boundary/movingWall.vtp"
    Boundary  : "VTK/cavity_piso_Smag_10616/boundary/fixedWalls.vtp"
Wrote in 0.09 s, 216364 kB
Time: 24
    volScalar    : nut p yPlus
    volVector    : U
    volSymTensor : turbulenceProperties:R
    Internal  : "VTK/cavity_piso_Smag_11078/internal.vtu"
    Boundary  : "VTK/cavity_piso_Smag_11078/boundary/movingWall.vtp"
    Boundary  : "VTK/cavity_piso_Smag_11078/boundary/fixedWalls.vtp"
Wrote in 0.08 s, 216364 kB
Time: 25
    volScalar    : nut nutMean p pMean yPlus
    volVector    : U UMean
    volSymTensor : UPrime2Mean turbulenceProperties:R
    Internal  : "VTK/cavity_piso_Smag_11540/internal.vtu"
    Boundary  : "VTK/cavity_piso_Smag_11540/boundary/movingWall.vtp"
    Boundary  : "VTK/cavity_piso_Smag_11540/boundary/fixedWalls.vtp"
Wrote in 0.13 s, 216364 kB
Time: 26
    volScalar    : nut nutMean p pMean yPlus
    volVector    : U UMean
    volSymTensor : UPrime2Mean turbulenceProperties:R
    Internal  : "VTK/cavity_piso_Smag_12001/internal.vtu"
    Boundary  : "VTK/cavity_piso_Smag_12001/boundary/movingWall.vtp"
    Boundary  : "VTK/cavity_piso_Smag_12001/boundary/fixedWalls.vtp"
Wrote in 0.12 s, 216364 kB
Time: 27
    volScalar    : nut nutMean p pMean yPlus
    volVector    : U UMean
    volSymTensor : UPrime2Mean turbulenceProperties:R
    Internal  : "VTK/cavity_piso_Smag_12461/internal.vtu"
    Boundary  : "VTK/cavity_piso_Smag_12461/boundary/movingWall.vtp"
    Boundary  : "VTK/cavity_piso_Smag_12461/boundary/fixedWalls.vtp"
Wrote in 0.1 s, 216364 kB
Time: 28
    volScalar    : nut nutMean p pMean yPlus
    volVector    : U UMean
    volSymTensor : UPrime2Mean turbulenceProperties:R
    Internal  : "VTK/cavity_piso_Smag_12920/internal.vtu"
    Boundary  : "VTK/cavity_piso_Smag_12920/boundary/movingWall.vtp"
    Boundary  : "VTK/cavity_piso_Smag_12920/boundary/fixedWalls.vtp"
Wrote in 0.13 s, 216364 kB
Time: 29
    volScalar    : nut nutMean p pMean yPlus
    volVector    : U UMean
    volSymTensor : UPrime2Mean turbulenceProperties:R
    Internal  : "VTK/cavity_piso_Smag_13380/internal.vtu"
    Boundary  : "VTK/cavity_piso_Smag_13380/boundary/movingWall.vtp"
    Boundary  : "VTK/cavity_piso_Smag_13380/boundary/fixedWalls.vtp"
Wrote in 0.11 s, 216364 kB
Time: 30
    volScalar    : nut nutMean p pMean yPlus
    volVector    : U UMean
    volSymTensor : UPrime2Mean turbulenceProperties:R
    Internal  : "VTK/cavity_piso_Smag_13840/internal.vtu"
    Boundary  : "VTK/cavity_piso_Smag_13840/boundary/movingWall.vtp"
    Boundary  : "VTK/cavity_piso_Smag_13840/boundary/fixedWalls.vtp"
Wrote in 0.11 s, 216364 kB
Time: 31
    volScalar    : nut nutMean p pMean yPlus
    volVector    : U UMean
    volSymTensor : UPrime2Mean turbulenceProperties:R
    Internal  : "VTK/cavity_piso_Smag_14300/internal.vtu"
    Boundary  : "VTK/cavity_piso_Smag_14300/boundary/movingWall.vtp"
    Boundary  : "VTK/cavity_piso_Smag_14300/boundary/fixedWalls.vtp"
Wrote in 0.11 s, 216364 kB
Time: 32
    volScalar    : nut nutMean p pMean yPlus
    volVector    : U UMean
    volSymTensor : UPrime2Mean turbulenceProperties:R
    Internal  : "VTK/cavity_piso_Smag_14762/internal.vtu"
    Boundary  : "VTK/cavity_piso_Smag_14762/boundary/movingWall.vtp"
    Boundary  : "VTK/cavity_piso_Smag_14762/boundary/fixedWalls.vtp"
Wrote in 0.11 s, 216364 kB
Time: 33
    volScalar    : nut nutMean p pMean yPlus
    volVector    : U UMean
    volSymTensor : UPrime2Mean turbulenceProperties:R
    Internal  : "VTK/cavity_piso_Smag_15223/internal.vtu"
    Boundary  : "VTK/cavity_piso_Smag_15223/boundary/movingWall.vtp"
    Boundary  : "VTK/cavity_piso_Smag_15223/boundary/fixedWalls.vtp"
Wrote in 0.1 s, 216364 kB
Time: 34
    volScalar    : nut nutMean p pMean yPlus
    volVector    : U UMean
    volSymTensor : UPrime2Mean turbulenceProperties:R
    Internal  : "VTK/cavity_piso_Smag_15683/internal.vtu"
    Boundary  : "VTK/cavity_piso_Smag_15683/boundary/movingWall.vtp"
    Boundary  : "VTK/cavity_piso_Smag_15683/boundary/fixedWalls.vtp"
Wrote in 0.12 s, 216364 kB
Time: 35
    volScalar    : nut nutMean p pMean yPlus
    volVector    : U UMean
    volSymTensor : UPrime2Mean turbulenceProperties:R
    Internal  : "VTK/cavity_piso_Smag_16144/internal.vtu"
    Boundary  : "VTK/cavity_piso_Smag_16144/boundary/movingWall.vtp"
    Boundary  : "VTK/cavity_piso_Smag_16144/boundary/fixedWalls.vtp"
Wrote in 0.13 s, 216364 kB
Time: 36
    volScalar    : nut nutMean p pMean yPlus
    volVector    : U UMean
    volSymTensor : UPrime2Mean turbulenceProperties:R
    Internal  : "VTK/cavity_piso_Smag_16605/internal.vtu"
    Boundary  : "VTK/cavity_piso_Smag_16605/boundary/movingWall.vtp"
    Boundary  : "VTK/cavity_piso_Smag_16605/boundary/fixedWalls.vtp"
Wrote in 0.12 s, 216364 kB
Time: 37
    volScalar    : nut nutMean p pMean yPlus
    volVector    : U UMean
    volSymTensor : UPrime2Mean turbulenceProperties:R
    Internal  : "VTK/cavity_piso_Smag_17066/internal.vtu"
    Boundary  : "VTK/cavity_piso_Smag_17066/boundary/movingWall.vtp"
    Boundary  : "VTK/cavity_piso_Smag_17066/boundary/fixedWalls.vtp"
Wrote in 0.11 s, 216364 kB
Time: 38
    volScalar    : nut nutMean p pMean yPlus
    volVector    : U UMean
    volSymTensor : UPrime2Mean turbulenceProperties:R
    Internal  : "VTK/cavity_piso_Smag_17527/internal.vtu"
    Boundary  : "VTK/cavity_piso_Smag_17527/boundary/movingWall.vtp"
    Boundary  : "VTK/cavity_piso_Smag_17527/boundary/fixedWalls.vtp"
Wrote in 0.11 s, 216364 kB
Time: 39
    volScalar    : nut nutMean p pMean yPlus
    volVector    : U UMean
    volSymTensor : UPrime2Mean turbulenceProperties:R
    Internal  : "VTK/cavity_piso_Smag_17988/internal.vtu"
    Boundary  : "VTK/cavity_piso_Smag_17988/boundary/movingWall.vtp"
    Boundary  : "VTK/cavity_piso_Smag_17988/boundary/fixedWalls.vtp"
Wrote in 0.11 s, 216364 kB
Time: 40
    volScalar    : nut nutMean p pMean yPlus
    volVector    : U UMean
    volSymTensor : UPrime2Mean turbulenceProperties:R
    Internal  : "VTK/cavity_piso_Smag_18449/internal.vtu"
    Boundary  : "VTK/cavity_piso_Smag_18449/boundary/movingWall.vtp"
    Boundary  : "VTK/cavity_piso_Smag_18449/boundary/fixedWalls.vtp"
Wrote in 0.13 s, 216364 kB
Time: 41
    volScalar    : nut nutMean p pMean yPlus
    volVector    : U UMean
    volSymTensor : UPrime2Mean turbulenceProperties:R
    Internal  : "VTK/cavity_piso_Smag_18910/internal.vtu"
    Boundary  : "VTK/cavity_piso_Smag_18910/boundary/movingWall.vtp"
    Boundary  : "VTK/cavity_piso_Smag_18910/boundary/fixedWalls.vtp"
Wrote in 0.1 s, 216364 kB
Time: 42
    volScalar    : nut nutMean p pMean yPlus
    volVector    : U UMean
    volSymTensor : UPrime2Mean turbulenceProperties:R
    Internal  : "VTK/cavity_piso_Smag_19370/internal.vtu"
    Boundary  : "VTK/cavity_piso_Smag_19370/boundary/movingWall.vtp"
    Boundary  : "VTK/cavity_piso_Smag_19370/boundary/fixedWalls.vtp"
Wrote in 0.11 s, 216364 kB
Time: 43
    volScalar    : nut nutMean p pMean yPlus
    volVector    : U UMean
    volSymTensor : UPrime2Mean turbulenceProperties:R
    Internal  : "VTK/cavity_piso_Smag_19831/internal.vtu"
    Boundary  : "VTK/cavity_piso_Smag_19831/boundary/movingWall.vtp"
    Boundary  : "VTK/cavity_piso_Smag_19831/boundary/fixedWalls.vtp"
Wrote in 0.1 s, 216364 kB
Time: 44
    volScalar    : nut nutMean p pMean yPlus
    volVector    : U UMean
    volSymTensor : UPrime2Mean turbulenceProperties:R
    Internal  : "VTK/cavity_piso_Smag_20292/internal.vtu"
    Boundary  : "VTK/cavity_piso_Smag_20292/boundary/movingWall.vtp"
    Boundary  : "VTK/cavity_piso_Smag_20292/boundary/fixedWalls.vtp"
Wrote in 0.12 s, 216364 kB
Time: 45
    volScalar    : nut nutMean p pMean yPlus
    volVector    : U UMean
    volSymTensor : UPrime2Mean turbulenceProperties:R
    Internal  : "VTK/cavity_piso_Smag_20753/internal.vtu"
    Boundary  : "VTK/cavity_piso_Smag_20753/boundary/movingWall.vtp"
    Boundary  : "VTK/cavity_piso_Smag_20753/boundary/fixedWalls.vtp"
Wrote in 0.12 s, 216364 kB
Time: 46
    volScalar    : nut nutMean p pMean yPlus
    volVector    : U UMean
    volSymTensor : UPrime2Mean turbulenceProperties:R
    Internal  : "VTK/cavity_piso_Smag_21214/internal.vtu"
    Boundary  : "VTK/cavity_piso_Smag_21214/boundary/movingWall.vtp"
    Boundary  : "VTK/cavity_piso_Smag_21214/boundary/fixedWalls.vtp"
Wrote in 0.1 s, 216364 kB
Time: 47
    volScalar    : nut nutMean p pMean yPlus
    volVector    : U UMean
    volSymTensor : UPrime2Mean turbulenceProperties:R
    Internal  : "VTK/cavity_piso_Smag_21675/internal.vtu"
    Boundary  : "VTK/cavity_piso_Smag_21675/boundary/movingWall.vtp"
    Boundary  : "VTK/cavity_piso_Smag_21675/boundary/fixedWalls.vtp"
Wrote in 0.09 s, 216364 kB
Time: 48
    volScalar    : nut nutMean p pMean yPlus
    volVector    : U UMean
    volSymTensor : UPrime2Mean turbulenceProperties:R
    Internal  : "VTK/cavity_piso_Smag_22137/internal.vtu"
    Boundary  : "VTK/cavity_piso_Smag_22137/boundary/movingWall.vtp"
    Boundary  : "VTK/cavity_piso_Smag_22137/boundary/fixedWalls.vtp"
Wrote in 0.11 s, 216364 kB
Time: 49
    volScalar    : nut nutMean p pMean yPlus
    volVector    : U UMean
    volSymTensor : UPrime2Mean turbulenceProperties:R
    Internal  : "VTK/cavity_piso_Smag_22599/internal.vtu"
    Boundary  : "VTK/cavity_piso_Smag_22599/boundary/movingWall.vtp"
    Boundary  : "VTK/cavity_piso_Smag_22599/boundary/fixedWalls.vtp"
Wrote in 0.12 s, 216364 kB
Time: 50
    volScalar    : nut nutMean p pMean yPlus
    volVector    : U UMean
    volSymTensor : UPrime2Mean turbulenceProperties:R
    Internal  : "VTK/cavity_piso_Smag_23060/internal.vtu"
    Boundary  : "VTK/cavity_piso_Smag_23060/boundary/movingWall.vtp"
    Boundary  : "VTK/cavity_piso_Smag_23060/boundary/fixedWalls.vtp"
Wrote in 0.13 s, 216364 kB
Time: 51
    volScalar    : nut nutMean p pMean yPlus
    volVector    : U UMean
    volSymTensor : UPrime2Mean turbulenceProperties:R
    Internal  : "VTK/cavity_piso_Smag_23522/internal.vtu"
    Boundary  : "VTK/cavity_piso_Smag_23522/boundary/movingWall.vtp"
    Boundary  : "VTK/cavity_piso_Smag_23522/boundary/fixedWalls.vtp"
Wrote in 0.1 s, 216364 kB
Time: 52
    volScalar    : nut nutMean p pMean yPlus
    volVector    : U UMean
    volSymTensor : UPrime2Mean turbulenceProperties:R
    Internal  : "VTK/cavity_piso_Smag_23984/internal.vtu"
    Boundary  : "VTK/cavity_piso_Smag_23984/boundary/movingWall.vtp"
    Boundary  : "VTK/cavity_piso_Smag_23984/boundary/fixedWalls.vtp"
Wrote in 0.12 s, 216364 kB
Time: 53
    volScalar    : nut nutMean p pMean yPlus
    volVector    : U UMean
    volSymTensor : UPrime2Mean turbulenceProperties:R
    Internal  : "VTK/cavity_piso_Smag_24445/internal.vtu"
    Boundary  : "VTK/cavity_piso_Smag_24445/boundary/movingWall.vtp"
    Boundary  : "VTK/cavity_piso_Smag_24445/boundary/fixedWalls.vtp"
Wrote in 0.12 s, 216364 kB
Time: 54
    volScalar    : nut nutMean p pMean yPlus
    volVector    : U UMean
    volSymTensor : UPrime2Mean turbulenceProperties:R
    Internal  : "VTK/cavity_piso_Smag_24906/internal.vtu"
    Boundary  : "VTK/cavity_piso_Smag_24906/boundary/movingWall.vtp"
    Boundary  : "VTK/cavity_piso_Smag_24906/boundary/fixedWalls.vtp"
Wrote in 0.1 s, 216364 kB
Time: 55
    volScalar    : nut nutMean p pMean yPlus
    volVector    : U UMean
    volSymTensor : UPrime2Mean turbulenceProperties:R
    Internal  : "VTK/cavity_piso_Smag_25368/internal.vtu"
    Boundary  : "VTK/cavity_piso_Smag_25368/boundary/movingWall.vtp"
    Boundary  : "VTK/cavity_piso_Smag_25368/boundary/fixedWalls.vtp"
Wrote in 0.1 s, 216364 kB
Time: 56
    volScalar    : nut nutMean p pMean yPlus
    volVector    : U UMean
    volSymTensor : UPrime2Mean turbulenceProperties:R
    Internal  : "VTK/cavity_piso_Smag_25830/internal.vtu"
    Boundary  : "VTK/cavity_piso_Smag_25830/boundary/movingWall.vtp"
    Boundary  : "VTK/cavity_piso_Smag_25830/boundary/fixedWalls.vtp"
Wrote in 0.11 s, 216364 kB
Time: 57
    volScalar    : nut nutMean p pMean yPlus
    volVector    : U UMean
    volSymTensor : UPrime2Mean turbulenceProperties:R
    Internal  : "VTK/cavity_piso_Smag_26292/internal.vtu"
    Boundary  : "VTK/cavity_piso_Smag_26292/boundary/movingWall.vtp"
    Boundary  : "VTK/cavity_piso_Smag_26292/boundary/fixedWalls.vtp"
Wrote in 0.1 s, 216364 kB
Time: 58
    volScalar    : nut nutMean p pMean yPlus
    volVector    : U UMean
    volSymTensor : UPrime2Mean turbulenceProperties:R
    Internal  : "VTK/cavity_piso_Smag_26754/internal.vtu"
    Boundary  : "VTK/cavity_piso_Smag_26754/boundary/movingWall.vtp"
    Boundary  : "VTK/cavity_piso_Smag_26754/boundary/fixedWalls.vtp"
Wrote in 0.13 s, 216364 kB
Time: 59
    volScalar    : nut nutMean p pMean yPlus
    volVector    : U UMean
    volSymTensor : UPrime2Mean turbulenceProperties:R
    Internal  : "VTK/cavity_piso_Smag_27216/internal.vtu"
    Boundary  : "VTK/cavity_piso_Smag_27216/boundary/movingWall.vtp"
    Boundary  : "VTK/cavity_piso_Smag_27216/boundary/fixedWalls.vtp"
Wrote in 0.13 s, 216364 kB
Time: 60
    volScalar    : nut nutMean p pMean yPlus
    volVector    : U UMean
    volSymTensor : UPrime2Mean turbulenceProperties:R
    Internal  : "VTK/cavity_piso_Smag_27678/internal.vtu"
    Boundary  : "VTK/cavity_piso_Smag_27678/boundary/movingWall.vtp"
    Boundary  : "VTK/cavity_piso_Smag_27678/boundary/fixedWalls.vtp"
Wrote in 0.12 s, 216364 kB
Time: 61
    volScalar    : nut nutMean p pMean yPlus
    volVector    : U UMean
    volSymTensor : UPrime2Mean turbulenceProperties:R
    Internal  : "VTK/cavity_piso_Smag_28140/internal.vtu"
    Boundary  : "VTK/cavity_piso_Smag_28140/boundary/movingWall.vtp"
    Boundary  : "VTK/cavity_piso_Smag_28140/boundary/fixedWalls.vtp"
Wrote in 0.11 s, 216364 kB
Time: 62
    volScalar    : nut nutMean p pMean yPlus
    volVector    : U UMean
    volSymTensor : UPrime2Mean turbulenceProperties:R
    Internal  : "VTK/cavity_piso_Smag_28601/internal.vtu"
    Boundary  : "VTK/cavity_piso_Smag_28601/boundary/movingWall.vtp"
    Boundary  : "VTK/cavity_piso_Smag_28601/boundary/fixedWalls.vtp"
Wrote in 0.13 s, 216364 kB
Time: 63
    volScalar    : nut nutMean p pMean yPlus
    volVector    : U UMean
    volSymTensor : UPrime2Mean turbulenceProperties:R
    Internal  : "VTK/cavity_piso_Smag_29063/internal.vtu"
    Boundary  : "VTK/cavity_piso_Smag_29063/boundary/movingWall.vtp"
    Boundary  : "VTK/cavity_piso_Smag_29063/boundary/fixedWalls.vtp"
Wrote in 0.11 s, 216364 kB
Time: 64
    volScalar    : nut nutMean p pMean yPlus
    volVector    : U UMean
    volSymTensor : UPrime2Mean turbulenceProperties:R
    Internal  : "VTK/cavity_piso_Smag_29525/internal.vtu"
    Boundary  : "VTK/cavity_piso_Smag_29525/boundary/movingWall.vtp"
    Boundary  : "VTK/cavity_piso_Smag_29525/boundary/fixedWalls.vtp"
Wrote in 0.09 s, 216364 kB
Time: 65
    volScalar    : nut nutMean p pMean yPlus
    volVector    : U UMean
    volSymTensor : UPrime2Mean turbulenceProperties:R
    Internal  : "VTK/cavity_piso_Smag_29987/internal.vtu"
    Boundary  : "VTK/cavity_piso_Smag_29987/boundary/movingWall.vtp"
    Boundary  : "VTK/cavity_piso_Smag_29987/boundary/fixedWalls.vtp"
Wrote in 0.1 s, 216364 kB
Time: 66
    volScalar    : nut nutMean p pMean yPlus
    volVector    : U UMean
    volSymTensor : UPrime2Mean turbulenceProperties:R
    Internal  : "VTK/cavity_piso_Smag_30449/internal.vtu"
    Boundary  : "VTK/cavity_piso_Smag_30449/boundary/movingWall.vtp"
    Boundary  : "VTK/cavity_piso_Smag_30449/boundary/fixedWalls.vtp"
Wrote in 0.12 s, 216364 kB
Time: 67
    volScalar    : nut nutMean p pMean yPlus
    volVector    : U UMean
    volSymTensor : UPrime2Mean turbulenceProperties:R
    Internal  : "VTK/cavity_piso_Smag_30911/internal.vtu"
    Boundary  : "VTK/cavity_piso_Smag_30911/boundary/movingWall.vtp"
    Boundary  : "VTK/cavity_piso_Smag_30911/boundary/fixedWalls.vtp"
Wrote in 0.11 s, 216364 kB
Time: 68
    volScalar    : nut nutMean p pMean yPlus
    volVector    : U UMean
    volSymTensor : UPrime2Mean turbulenceProperties:R
    Internal  : "VTK/cavity_piso_Smag_31373/internal.vtu"
    Boundary  : "VTK/cavity_piso_Smag_31373/boundary/movingWall.vtp"
    Boundary  : "VTK/cavity_piso_Smag_31373/boundary/fixedWalls.vtp"
Wrote in 0.1 s, 216364 kB
Time: 69
    volScalar    : nut nutMean p pMean yPlus
    volVector    : U UMean
    volSymTensor : UPrime2Mean turbulenceProperties:R
    Internal  : "VTK/cavity_piso_Smag_31835/internal.vtu"
    Boundary  : "VTK/cavity_piso_Smag_31835/boundary/movingWall.vtp"
    Boundary  : "VTK/cavity_piso_Smag_31835/boundary/fixedWalls.vtp"
Wrote in 0.12 s, 216364 kB
Time: 70
    volScalar    : nut nutMean p pMean yPlus
    volVector    : U UMean
    volSymTensor : UPrime2Mean turbulenceProperties:R
    Internal  : "VTK/cavity_piso_Smag_32297/internal.vtu"
    Boundary  : "VTK/cavity_piso_Smag_32297/boundary/movingWall.vtp"
    Boundary  : "VTK/cavity_piso_Smag_32297/boundary/fixedWalls.vtp"
Wrote in 0.13 s, 216364 kB
Time: 71
    volScalar    : nut nutMean p pMean yPlus
    volVector    : U UMean
    volSymTensor : UPrime2Mean turbulenceProperties:R
    Internal  : "VTK/cavity_piso_Smag_32759/internal.vtu"
    Boundary  : "VTK/cavity_piso_Smag_32759/boundary/movingWall.vtp"
    Boundary  : "VTK/cavity_piso_Smag_32759/boundary/fixedWalls.vtp"
Wrote in 0.11 s, 216364 kB
Time: 72
    volScalar    : nut nutMean p pMean yPlus
    volVector    : U UMean
    volSymTensor : UPrime2Mean turbulenceProperties:R
    Internal  : "VTK/cavity_piso_Smag_33221/internal.vtu"
    Boundary  : "VTK/cavity_piso_Smag_33221/boundary/movingWall.vtp"
    Boundary  : "VTK/cavity_piso_Smag_33221/boundary/fixedWalls.vtp"
Wrote in 0.11 s, 216364 kB
Time: 73
    volScalar    : nut nutMean p pMean yPlus
    volVector    : U UMean
    volSymTensor : UPrime2Mean turbulenceProperties:R
    Internal  : "VTK/cavity_piso_Smag_33683/internal.vtu"
    Boundary  : "VTK/cavity_piso_Smag_33683/boundary/movingWall.vtp"
    Boundary  : "VTK/cavity_piso_Smag_33683/boundary/fixedWalls.vtp"
Wrote in 0.09 s, 216364 kB
Time: 74
    volScalar    : nut nutMean p pMean yPlus
    volVector    : U UMean
    volSymTensor : UPrime2Mean turbulenceProperties:R
    Internal  : "VTK/cavity_piso_Smag_34145/internal.vtu"
    Boundary  : "VTK/cavity_piso_Smag_34145/boundary/movingWall.vtp"
    Boundary  : "VTK/cavity_piso_Smag_34145/boundary/fixedWalls.vtp"
Wrote in 0.12 s, 216364 kB
Time: 75
    volScalar    : nut nutMean p pMean yPlus
    volVector    : U UMean
    volSymTensor : UPrime2Mean turbulenceProperties:R
    Internal  : "VTK/cavity_piso_Smag_34608/internal.vtu"
    Boundary  : "VTK/cavity_piso_Smag_34608/boundary/movingWall.vtp"
    Boundary  : "VTK/cavity_piso_Smag_34608/boundary/fixedWalls.vtp"
Wrote in 0.12 s, 216364 kB
Time: 76
    volScalar    : nut nutMean p pMean yPlus
    volVector    : U UMean
    volSymTensor : UPrime2Mean turbulenceProperties:R
    Internal  : "VTK/cavity_piso_Smag_35070/internal.vtu"
    Boundary  : "VTK/cavity_piso_Smag_35070/boundary/movingWall.vtp"
    Boundary  : "VTK/cavity_piso_Smag_35070/boundary/fixedWalls.vtp"
Wrote in 0.1 s, 216364 kB
Time: 77
    volScalar    : nut nutMean p pMean yPlus
    volVector    : U UMean
    volSymTensor : UPrime2Mean turbulenceProperties:R
    Internal  : "VTK/cavity_piso_Smag_35532/internal.vtu"
    Boundary  : "VTK/cavity_piso_Smag_35532/boundary/movingWall.vtp"
    Boundary  : "VTK/cavity_piso_Smag_35532/boundary/fixedWalls.vtp"
Wrote in 0.1 s, 216364 kB
Time: 78
    volScalar    : nut nutMean p pMean yPlus
    volVector    : U UMean
    volSymTensor : UPrime2Mean turbulenceProperties:R
    Internal  : "VTK/cavity_piso_Smag_35994/internal.vtu"
    Boundary  : "VTK/cavity_piso_Smag_35994/boundary/movingWall.vtp"
    Boundary  : "VTK/cavity_piso_Smag_35994/boundary/fixedWalls.vtp"
Wrote in 0.1 s, 216364 kB
Time: 79
    volScalar    : nut nutMean p pMean yPlus
    volVector    : U UMean
    volSymTensor : UPrime2Mean turbulenceProperties:R
    Internal  : "VTK/cavity_piso_Smag_36456/internal.vtu"
    Boundary  : "VTK/cavity_piso_Smag_36456/boundary/movingWall.vtp"
    Boundary  : "VTK/cavity_piso_Smag_36456/boundary/fixedWalls.vtp"
Wrote in 0.11 s, 216364 kB
Time: 80
    volScalar    : nut nutMean p pMean yPlus
    volVector    : U UMean
    volSymTensor : UPrime2Mean turbulenceProperties:R
    Internal  : "VTK/cavity_piso_Smag_36918/internal.vtu"
    Boundary  : "VTK/cavity_piso_Smag_36918/boundary/movingWall.vtp"
    Boundary  : "VTK/cavity_piso_Smag_36918/boundary/fixedWalls.vtp"
Wrote in 0.13 s, 216364 kB
Time: 81
    volScalar    : nut nutMean p pMean yPlus
    volVector    : U UMean
    volSymTensor : UPrime2Mean turbulenceProperties:R
    Internal  : "VTK/cavity_piso_Smag_37381/internal.vtu"
    Boundary  : "VTK/cavity_piso_Smag_37381/boundary/movingWall.vtp"
    Boundary  : "VTK/cavity_piso_Smag_37381/boundary/fixedWalls.vtp"
Wrote in 0.1 s, 216364 kB
Time: 82
    volScalar    : nut nutMean p pMean yPlus
    volVector    : U UMean
    volSymTensor : UPrime2Mean turbulenceProperties:R
    Internal  : "VTK/cavity_piso_Smag_37843/internal.vtu"
    Boundary  : "VTK/cavity_piso_Smag_37843/boundary/movingWall.vtp"
    Boundary  : "VTK/cavity_piso_Smag_37843/boundary/fixedWalls.vtp"
Wrote in 0.14 s, 216364 kB
Time: 83
    volScalar    : nut nutMean p pMean yPlus
    volVector    : U UMean
    volSymTensor : UPrime2Mean turbulenceProperties:R
    Internal  : "VTK/cavity_piso_Smag_38305/internal.vtu"
    Boundary  : "VTK/cavity_piso_Smag_38305/boundary/movingWall.vtp"
    Boundary  : "VTK/cavity_piso_Smag_38305/boundary/fixedWalls.vtp"
Wrote in 0.14 s, 216364 kB
Time: 84
    volScalar    : nut nutMean p pMean yPlus
    volVector    : U UMean
    volSymTensor : UPrime2Mean turbulenceProperties:R
    Internal  : "VTK/cavity_piso_Smag_38768/internal.vtu"
    Boundary  : "VTK/cavity_piso_Smag_38768/boundary/movingWall.vtp"
    Boundary  : "VTK/cavity_piso_Smag_38768/boundary/fixedWalls.vtp"
Wrote in 0.12 s, 216364 kB
Time: 85
    volScalar    : nut nutMean p pMean yPlus
    volVector    : U UMean
    volSymTensor : UPrime2Mean turbulenceProperties:R
    Internal  : "VTK/cavity_piso_Smag_39230/internal.vtu"
    Boundary  : "VTK/cavity_piso_Smag_39230/boundary/movingWall.vtp"
    Boundary  : "VTK/cavity_piso_Smag_39230/boundary/fixedWalls.vtp"
Wrote in 0.1 s, 216364 kB
Time: 86
    volScalar    : nut nutMean p pMean yPlus
    volVector    : U UMean
    volSymTensor : UPrime2Mean turbulenceProperties:R
    Internal  : "VTK/cavity_piso_Smag_39692/internal.vtu"
    Boundary  : "VTK/cavity_piso_Smag_39692/boundary/movingWall.vtp"
    Boundary  : "VTK/cavity_piso_Smag_39692/boundary/fixedWalls.vtp"
Wrote in 0.1 s, 216364 kB
Time: 87
    volScalar    : nut nutMean p pMean yPlus
    volVector    : U UMean
    volSymTensor : UPrime2Mean turbulenceProperties:R
    Internal  : "VTK/cavity_piso_Smag_40155/internal.vtu"
    Boundary  : "VTK/cavity_piso_Smag_40155/boundary/movingWall.vtp"
    Boundary  : "VTK/cavity_piso_Smag_40155/boundary/fixedWalls.vtp"
Wrote in 0.13 s, 216364 kB
Time: 88
    volScalar    : nut nutMean p pMean yPlus
    volVector    : U UMean
    volSymTensor : UPrime2Mean turbulenceProperties:R
    Internal  : "VTK/cavity_piso_Smag_40617/internal.vtu"
    Boundary  : "VTK/cavity_piso_Smag_40617/boundary/movingWall.vtp"
    Boundary  : "VTK/cavity_piso_Smag_40617/boundary/fixedWalls.vtp"
Wrote in 0.1 s, 216364 kB
Time: 89
    volScalar    : nut nutMean p pMean yPlus
    volVector    : U UMean
    volSymTensor : UPrime2Mean turbulenceProperties:R
    Internal  : "VTK/cavity_piso_Smag_41079/internal.vtu"
    Boundary  : "VTK/cavity_piso_Smag_41079/boundary/movingWall.vtp"
    Boundary  : "VTK/cavity_piso_Smag_41079/boundary/fixedWalls.vtp"
Wrote in 0.12 s, 216364 kB
Time: 90
    volScalar    : nut nutMean p pMean yPlus
    volVector    : U UMean
    volSymTensor : UPrime2Mean turbulenceProperties:R
    Internal  : "VTK/cavity_piso_Smag_41541/internal.vtu"
    Boundary  : "VTK/cavity_piso_Smag_41541/boundary/movingWall.vtp"
    Boundary  : "VTK/cavity_piso_Smag_41541/boundary/fixedWalls.vtp"
Wrote in 0.1 s, 216364 kB
Time: 91
    volScalar    : nut nutMean p pMean yPlus
    volVector    : U UMean
    volSymTensor : UPrime2Mean turbulenceProperties:R
    Internal  : "VTK/cavity_piso_Smag_42003/internal.vtu"
    Boundary  : "VTK/cavity_piso_Smag_42003/boundary/movingWall.vtp"
    Boundary  : "VTK/cavity_piso_Smag_42003/boundary/fixedWalls.vtp"
Wrote in 0.12 s, 216364 kB
Time: 92
    volScalar    : nut nutMean p pMean yPlus
    volVector    : U UMean
    volSymTensor : UPrime2Mean turbulenceProperties:R
    Internal  : "VTK/cavity_piso_Smag_42466/internal.vtu"
    Boundary  : "VTK/cavity_piso_Smag_42466/boundary/movingWall.vtp"
    Boundary  : "VTK/cavity_piso_Smag_42466/boundary/fixedWalls.vtp"
Wrote in 0.09 s, 216364 kB
Time: 93
    volScalar    : nut nutMean p pMean yPlus
    volVector    : U UMean
    volSymTensor : UPrime2Mean turbulenceProperties:R
    Internal  : "VTK/cavity_piso_Smag_42929/internal.vtu"
    Boundary  : "VTK/cavity_piso_Smag_42929/boundary/movingWall.vtp"
    Boundary  : "VTK/cavity_piso_Smag_42929/boundary/fixedWalls.vtp"
Wrote in 0.12 s, 216364 kB
Time: 94
    volScalar    : nut nutMean p pMean yPlus
    volVector    : U UMean
    volSymTensor : UPrime2Mean turbulenceProperties:R
    Internal  : "VTK/cavity_piso_Smag_43391/internal.vtu"
    Boundary  : "VTK/cavity_piso_Smag_43391/boundary/movingWall.vtp"
    Boundary  : "VTK/cavity_piso_Smag_43391/boundary/fixedWalls.vtp"
Wrote in 0.1 s, 216364 kB
Time: 95
    volScalar    : nut nutMean p pMean yPlus
    volVector    : U UMean
    volSymTensor : UPrime2Mean turbulenceProperties:R
    Internal  : "VTK/cavity_piso_Smag_43854/internal.vtu"
    Boundary  : "VTK/cavity_piso_Smag_43854/boundary/movingWall.vtp"
    Boundary  : "VTK/cavity_piso_Smag_43854/boundary/fixedWalls.vtp"
Wrote in 0.09 s, 216364 kB
Time: 96
    volScalar    : nut nutMean p pMean yPlus
    volVector    : U UMean
    volSymTensor : UPrime2Mean turbulenceProperties:R
    Internal  : "VTK/cavity_piso_Smag_44316/internal.vtu"
    Boundary  : "VTK/cavity_piso_Smag_44316/boundary/movingWall.vtp"
    Boundary  : "VTK/cavity_piso_Smag_44316/boundary/fixedWalls.vtp"
Wrote in 0.1 s, 216364 kB
Time: 97
    volScalar    : nut nutMean p pMean yPlus
    volVector    : U UMean
    volSymTensor : UPrime2Mean turbulenceProperties:R
    Internal  : "VTK/cavity_piso_Smag_44778/internal.vtu"
    Boundary  : "VTK/cavity_piso_Smag_44778/boundary/movingWall.vtp"
    Boundary  : "VTK/cavity_piso_Smag_44778/boundary/fixedWalls.vtp"
Wrote in 0.14 s, 216364 kB
Time: 98
    volScalar    : nut nutMean p pMean yPlus
    volVector    : U UMean
    volSymTensor : UPrime2Mean turbulenceProperties:R
    Internal  : "VTK/cavity_piso_Smag_45241/internal.vtu"
    Boundary  : "VTK/cavity_piso_Smag_45241/boundary/movingWall.vtp"
    Boundary  : "VTK/cavity_piso_Smag_45241/boundary/fixedWalls.vtp"
Wrote in 0.1 s, 216364 kB
Time: 99
    volScalar    : nut nutMean p pMean yPlus
    volVector    : U UMean
    volSymTensor : UPrime2Mean turbulenceProperties:R
    Internal  : "VTK/cavity_piso_Smag_45703/internal.vtu"
    Boundary  : "VTK/cavity_piso_Smag_45703/boundary/movingWall.vtp"
    Boundary  : "VTK/cavity_piso_Smag_45703/boundary/fixedWalls.vtp"
Wrote in 0.1 s, 216364 kB
Time: 100
    volScalar    : nut nutMean p pMean yPlus
    volVector    : U UMean
    volSymTensor : UPrime2Mean turbulenceProperties:R
    Internal  : "VTK/cavity_piso_Smag_46165/internal.vtu"
    Boundary  : "VTK/cavity_piso_Smag_46165/boundary/movingWall.vtp"
    Boundary  : "VTK/cavity_piso_Smag_46165/boundary/fixedWalls.vtp"
Wrote in 0.15 s, 216364 kB

End: 10.63 s, 227396 kB (peak)

